MODEL 1
REMARK VINA RESULT:     -11.6      0.000      0.000
REMARK  14 active torsions:
REMARK  status: ('A' for Active; 'I' for Inactive)
REMARK    1  A    between atoms: N1_1  and  C31_43 
REMARK    2  A    between atoms: C2_3  and  C3_4 
REMARK       I    between atoms: C3_4  and  N2_6 
REMARK    3  A    between atoms: N2_6  and  C4_8 
REMARK    4  A    between atoms: N3_12  and  C10_15 
REMARK    5  A    between atoms: C10_15  and  C11_16 
REMARK    6  A    between atoms: C11_16  and  O2_17 
REMARK    7  A    between atoms: C11_16  and  C12_19 
REMARK    8  A    between atoms: C12_19  and  C13_20 
REMARK    9  A    between atoms: C13_20  and  C21_28 
REMARK   10  A    between atoms: C13_20  and  C14_21 
REMARK   11  A    between atoms: C14_21  and  C15_22 
REMARK       I    between atoms: C21_28  and  N4_30 
REMARK   12  A    between atoms: N4_30  and  C22_32 
REMARK   13  A    between atoms: C23_33  and  O4_34 
REMARK   14  A    between atoms: C31_43  and  C32_44 
ROOT
HETATM    1  N1  MK1 B 902       9.142  24.302   2.979  1.00 28.25     0.096 N 
HETATM    2  C1  MK1 B 902       9.372  24.424   4.444  1.00 30.30     0.307 C 
HETATM    3  C2  MK1 B 902      10.551  25.199   4.995  1.00 27.27     0.200 C 
HETATM    4  N3  MK1 B 902      11.712  24.483   4.359  1.00 28.91    -0.395 N 
HETATM    5  C8  MK1 B 902      11.603  24.058   2.941  1.00 26.24     0.148 C 
HETATM    6  C9  MK1 B 902      10.238  23.630   2.441  1.00 27.47     0.292 C 
ENDROOT
BRANCH   1   7
HETATM    7  C31 MK1 B 902       7.835  23.794   2.544  1.00 36.25     0.312 C 
BRANCH   7   8
HETATM    8  C32 MK1 B 902       6.545  24.174   3.281  1.00 42.75    -0.015 A 
HETATM    9  C36 MK1 B 902       5.695  23.153   3.648  1.00 44.71     0.011 A 
HETATM   10  C35 MK1 B 902       4.512  23.492   4.300  1.00 49.34     0.018 A 
HETATM   11  C34 MK1 B 902       4.219  24.834   4.559  1.00 50.60     0.087 A 
HETATM   12  N5  MK1 B 902       5.022  25.924   4.223  1.00 51.38    -0.375 N 
HETATM   13  C33 MK1 B 902       6.191  25.499   3.571  1.00 47.41     0.096 A 
HETATM   14  H5  MK1 B 902       4.790  26.897   4.422  1.00  0.00     0.164 HD
ENDBRANCH   7   8
ENDBRANCH   1   7
BRANCH   3  15
HETATM   15  C3  MK1 B 902      10.537  25.082   6.495  1.00 28.85     0.242 C 
HETATM   16  O1  MK1 B 902      10.600  23.982   7.030  1.00 29.59    -0.271 OA
HETATM   17  N2  MK1 B 902      10.440  26.204   7.182  1.00 22.29    -0.351 N 
HETATM   18  H2  MK1 B 902      10.326  27.045   6.616  1.00  0.00     0.163 HD
BRANCH  17  19
HETATM   19  C4  MK1 B 902      10.469  26.430   8.592  1.00 23.47     0.022 C 
HETATM   20  C7  MK1 B 902       9.498  25.621   9.335  1.00 22.75     0.037 C 
HETATM   21  C5  MK1 B 902      10.019  27.884   8.823  1.00 27.66     0.037 C 
HETATM   22  C6  MK1 B 902      11.716  26.216   9.157  1.00 21.71     0.037 C 
ENDBRANCH  17  19
ENDBRANCH   3  15
BRANCH   4  23
HETATM   23  C10 MK1 B 902      13.039  25.017   4.593  1.00 20.86     0.149 C 
BRANCH  23  24
HETATM   24  C11 MK1 B 902      14.044  23.989   5.115  1.00 21.68     0.136 C 
BRANCH  24  25
HETATM   25  O2  MK1 B 902      15.174  24.694   4.696  1.00 15.87    -0.394 OA
HETATM   26  H2  MK1 B 902      14.918  25.597   4.548  1.00  0.00     0.210 HD
ENDBRANCH  24  25
BRANCH  24  27
HETATM   27  C12 MK1 B 902      14.227  23.637   6.603  1.00 21.49     0.047 C 
BRANCH  27  28
HETATM   28  C13 MK1 B 902      15.412  22.775   7.062  1.00 26.89     0.084 C 
BRANCH  28  29
HETATM   29  C21 MK1 B 902      15.399  21.394   6.417  1.00 29.35     0.222 C 
HETATM   30  N4  MK1 B 902      16.578  20.959   5.981  1.00 31.19    -0.350 N 
HETATM   31  H4  MK1 B 902      17.346  21.621   5.875  1.00  0.00     0.163 HD
HETATM   32  O3  MK1 B 902      14.368  20.705   6.420  1.00 32.66    -0.273 OA
BRANCH  30  33
HETATM   33  C22 MK1 B 902      16.798  19.561   5.652  1.00 29.22     0.147 C 
HETATM   34  C30 MK1 B 902      16.579  19.105   4.185  1.00 31.86    -0.027 A 
HETATM   35  C29 MK1 B 902      15.676  19.446   3.228  1.00 27.70     0.010 A 
HETATM   36  C25 MK1 B 902      17.632  18.040   3.766  1.00 31.29    -0.047 A 
HETATM   37  C28 MK1 B 902      15.705  18.878   1.962  1.00 29.01     0.001 A 
HETATM   38  C27 MK1 B 902      16.669  17.928   1.592  1.00 28.00     0.001 A 
HETATM   39  C26 MK1 B 902      17.643  17.502   2.501  1.00 32.00     0.008 A 
HETATM   40  C24 MK1 B 902      18.457  17.932   5.025  1.00 32.05     0.073 C 
HETATM   41  C23 MK1 B 902      18.232  19.132   5.915  1.00 28.82     0.149 C 
BRANCH  41  42
HETATM   42  O4  MK1 B 902      19.122  20.211   5.663  1.00 28.32    -0.393 OA
HETATM   43  H4  MK1 B 902      19.298  20.686   6.467  1.00  0.00     0.210 HD
ENDBRANCH  41  42
ENDBRANCH  30  33
ENDBRANCH  28  29
BRANCH  28  44
HETATM   44  C14 MK1 B 902      15.454  22.610   8.591  1.00 28.67     0.052 C 
BRANCH  44  45
HETATM   45  C15 MK1 B 902      16.577  21.748   9.038  1.00 26.89    -0.057 A 
HETATM   46  C16 MK1 B 902      17.912  22.049   8.762  1.00 29.22     0.007 A 
HETATM   47  C17 MK1 B 902      18.927  21.195   9.168  1.00 29.22     0.001 A 
HETATM   48  C18 MK1 B 902      18.589  20.028   9.857  1.00 30.97     0.000 A 
HETATM   49  C19 MK1 B 902      17.252  19.727  10.143  1.00 29.25     0.001 A 
HETATM   50  C20 MK1 B 902      16.243  20.596   9.729  1.00 29.96     0.007 A 
ENDBRANCH  44  45
ENDBRANCH  28  44
ENDBRANCH  27  28
ENDBRANCH  24  27
ENDBRANCH  23  24
ENDBRANCH   4  23
TORSDOF 14
ENDMDL
MODEL 2
REMARK VINA RESULT:     -10.7      1.327      4.173
REMARK  14 active torsions:
REMARK  status: ('A' for Active; 'I' for Inactive)
REMARK    1  A    between atoms: N1_1  and  C31_43 
REMARK    2  A    between atoms: C2_3  and  C3_4 
REMARK       I    between atoms: C3_4  and  N2_6 
REMARK    3  A    between atoms: N2_6  and  C4_8 
REMARK    4  A    between atoms: N3_12  and  C10_15 
REMARK    5  A    between atoms: C10_15  and  C11_16 
REMARK    6  A    between atoms: C11_16  and  O2_17 
REMARK    7  A    between atoms: C11_16  and  C12_19 
REMARK    8  A    between atoms: C12_19  and  C13_20 
REMARK    9  A    between atoms: C13_20  and  C21_28 
REMARK   10  A    between atoms: C13_20  and  C14_21 
REMARK   11  A    between atoms: C14_21  and  C15_22 
REMARK       I    between atoms: C21_28  and  N4_30 
REMARK   12  A    between atoms: N4_30  and  C22_32 
REMARK   13  A    between atoms: C23_33  and  O4_34 
REMARK   14  A    between atoms: C31_43  and  C32_44 
ROOT
HETATM    1  N1  MK1 B 902       9.085  24.509   2.875  1.00 28.25     0.096 N 
HETATM    2  C1  MK1 B 902       9.249  24.622   4.349  1.00 30.30     0.307 C 
HETATM    3  C2  MK1 B 902      10.454  25.311   4.958  1.00 27.27     0.200 C 
HETATM    4  N3  MK1 B 902      11.589  24.507   4.383  1.00 28.91    -0.395 N 
HETATM    5  C8  MK1 B 902      11.520  24.084   2.961  1.00 26.24     0.148 C 
HETATM    6  C9  MK1 B 902      10.154  23.755   2.394  1.00 27.47     0.292 C 
ENDROOT
BRANCH   1   7
HETATM    7  C31 MK1 B 902       7.768  24.097   2.374  1.00 36.25     0.312 C 
BRANCH   7   8
HETATM    8  C32 MK1 B 902       6.494  24.326   3.197  1.00 42.75    -0.015 A 
HETATM    9  C36 MK1 B 902       5.761  23.217   3.562  1.00 44.71     0.011 A 
HETATM   10  C35 MK1 B 902       4.593  23.419   4.292  1.00 49.34     0.018 A 
HETATM   11  C34 MK1 B 902       4.197  24.717   4.628  1.00 50.60     0.087 A 
HETATM   12  N5  MK1 B 902       4.877  25.889   4.299  1.00 51.38    -0.375 N 
HETATM   13  C33 MK1 B 902       6.041  25.600   3.566  1.00 47.41     0.096 A 
HETATM   14  H5  MK1 B 902       4.572  26.828   4.554  1.00  0.00     0.164 HD
ENDBRANCH   7   8
ENDBRANCH   1   7
BRANCH   3  15
HETATM   15  C3  MK1 B 902      10.355  25.204   6.455  1.00 28.85     0.242 C 
HETATM   16  O1  MK1 B 902      10.289  24.106   6.993  1.00 29.59    -0.271 OA
HETATM   17  N2  MK1 B 902      10.330  26.333   7.136  1.00 22.29    -0.351 N 
HETATM   18  H2  MK1 B 902      10.323  27.178   6.564  1.00  0.00     0.163 HD
BRANCH  17  19
HETATM   19  C4  MK1 B 902      10.311  26.563   8.545  1.00 23.47     0.022 C 
HETATM   20  C7  MK1 B 902       9.243  25.840   9.242  1.00 22.75     0.037 C 
HETATM   21  C5  MK1 B 902       9.971  28.050   8.753  1.00 27.66     0.037 C 
HETATM   22  C6  MK1 B 902      11.509  26.250   9.169  1.00 21.71     0.037 C 
ENDBRANCH  17  19
ENDBRANCH   3  15
BRANCH   4  23
HETATM   23  C10 MK1 B 902      12.938  24.943   4.682  1.00 20.86     0.149 C 
BRANCH  23  24
HETATM   24  C11 MK1 B 902      13.759  23.932   5.484  1.00 21.68     0.136 C 
BRANCH  24  25
HETATM   25  O2  MK1 B 902      13.879  24.738   6.618  1.00 15.87    -0.394 OA
HETATM   26  H2  MK1 B 902      14.477  24.310   7.220  1.00  0.00     0.210 HD
ENDBRANCH  24  25
BRANCH  24  27
HETATM   27  C12 MK1 B 902      13.235  22.555   5.932  1.00 21.49     0.047 C 
BRANCH  27  28
HETATM   28  C13 MK1 B 902      14.209  21.402   6.213  1.00 26.89     0.084 C 
BRANCH  28  29
HETATM   29  C21 MK1 B 902      14.840  21.508   7.596  1.00 29.35     0.222 C 
HETATM   30  N4  MK1 B 902      15.948  20.793   7.773  1.00 31.19    -0.350 N 
HETATM   31  H4  MK1 B 902      16.178  20.058   7.105  1.00  0.00     0.163 HD
HETATM   32  O3  MK1 B 902      14.391  22.303   8.435  1.00 32.66    -0.273 OA
BRANCH  30  33
HETATM   33  C22 MK1 B 902      16.838  21.036   8.896  1.00 29.22     0.147 C 
HETATM   34  C30 MK1 B 902      17.185  19.848   9.832  1.00 31.86    -0.027 A 
HETATM   35  C29 MK1 B 902      16.468  18.796  10.307  1.00 27.70     0.010 A 
HETATM   36  C25 MK1 B 902      18.667  19.917  10.297  1.00 31.29    -0.047 A 
HETATM   37  C28 MK1 B 902      17.034  17.847  11.148  1.00 29.01     0.001 A 
HETATM   38  C27 MK1 B 902      18.377  17.912  11.549  1.00 28.00     0.001 A 
HETATM   39  C26 MK1 B 902      19.204  18.957  11.122  1.00 32.00     0.008 A 
HETATM   40  C24 MK1 B 902      19.144  21.155   9.579  1.00 32.05     0.073 C 
HETATM   41  C23 MK1 B 902      18.211  21.505   8.443  1.00 28.82     0.149 C 
BRANCH  41  42
HETATM   42  O4  MK1 B 902      18.555  20.897   7.207  1.00 28.32    -0.393 OA
HETATM   43  H4  MK1 B 902      19.500  20.881   7.100  1.00  0.00     0.210 HD
ENDBRANCH  41  42
ENDBRANCH  30  33
ENDBRANCH  28  29
BRANCH  28  44
HETATM   44  C14 MK1 B 902      15.328  21.316   5.160  1.00 28.67     0.052 C 
BRANCH  44  45
HETATM   45  C15 MK1 B 902      15.188  20.130   4.278  1.00 26.89    -0.057 A 
HETATM   46  C16 MK1 B 902      14.989  20.237   2.900  1.00 29.22     0.007 A 
HETATM   47  C17 MK1 B 902      14.826  19.102   2.119  1.00 29.22     0.001 A 
HETATM   48  C18 MK1 B 902      14.863  17.850   2.737  1.00 30.97     0.000 A 
HETATM   49  C19 MK1 B 902      15.070  17.738   4.117  1.00 29.25     0.001 A 
HETATM   50  C20 MK1 B 902      15.233  18.888   4.889  1.00 29.96     0.007 A 
ENDBRANCH  44  45
ENDBRANCH  28  44
ENDBRANCH  27  28
ENDBRANCH  24  27
ENDBRANCH  23  24
ENDBRANCH   4  23
TORSDOF 14
ENDMDL
MODEL 3
REMARK VINA RESULT:     -10.5      2.021     10.986
REMARK  14 active torsions:
REMARK  status: ('A' for Active; 'I' for Inactive)
REMARK    1  A    between atoms: N1_1  and  C31_43 
REMARK    2  A    between atoms: C2_3  and  C3_4 
REMARK       I    between atoms: C3_4  and  N2_6 
REMARK    3  A    between atoms: N2_6  and  C4_8 
REMARK    4  A    between atoms: N3_12  and  C10_15 
REMARK    5  A    between atoms: C10_15  and  C11_16 
REMARK    6  A    between atoms: C11_16  and  O2_17 
REMARK    7  A    between atoms: C11_16  and  C12_19 
REMARK    8  A    between atoms: C12_19  and  C13_20 
REMARK    9  A    between atoms: C13_20  and  C21_28 
REMARK   10  A    between atoms: C13_20  and  C14_21 
REMARK   11  A    between atoms: C14_21  and  C15_22 
REMARK       I    between atoms: C21_28  and  N4_30 
REMARK   12  A    between atoms: N4_30  and  C22_32 
REMARK   13  A    between atoms: C23_33  and  O4_34 
REMARK   14  A    between atoms: C31_43  and  C32_44 
ROOT
HETATM    1  N1  MK1 B 902      16.436  21.125   8.929  1.00 28.25     0.096 N 
HETATM    2  C1  MK1 B 902      15.905  20.485   7.695  1.00 30.30     0.307 C 
HETATM    3  C2  MK1 B 902      16.042  21.150   6.340  1.00 27.27     0.200 C 
HETATM    4  N3  MK1 B 902      15.340  22.460   6.572  1.00 28.91    -0.395 N 
HETATM    5  C8  MK1 B 902      15.552  23.172   7.857  1.00 26.24     0.148 C 
HETATM    6  C9  MK1 B 902      15.752  22.328   9.100  1.00 27.47     0.292 C 
ENDROOT
BRANCH   1   7
HETATM    7  C31 MK1 B 902      16.525  20.292  10.134  1.00 36.25     0.312 C 
BRANCH   7   8
HETATM    8  C32 MK1 B 902      17.188  18.910  10.102  1.00 42.75    -0.015 A 
HETATM    9  C36 MK1 B 902      16.763  17.976  11.023  1.00 44.71     0.011 A 
HETATM   10  C35 MK1 B 902      17.376  16.725  11.012  1.00 49.34     0.018 A 
HETATM   11  C34 MK1 B 902      18.389  16.453  10.088  1.00 50.60     0.087 A 
HETATM   12  N5  MK1 B 902      18.875  17.337   9.127  1.00 51.38    -0.375 N 
HETATM   13  C33 MK1 B 902      18.208  18.571   9.202  1.00 47.41     0.096 A 
HETATM   14  H5  MK1 B 902      19.615  17.119   8.459  1.00  0.00     0.164 HD
ENDBRANCH   7   8
ENDBRANCH   1   7
BRANCH   3  15
HETATM   15  C3  MK1 B 902      15.356  20.286   5.317  1.00 28.85     0.242 C 
HETATM   16  O1  MK1 B 902      14.151  20.083   5.387  1.00 29.59    -0.271 OA
HETATM   17  N2  MK1 B 902      16.113  19.762   4.373  1.00 22.29    -0.351 N 
HETATM   18  H2  MK1 B 902      17.111  19.953   4.468  1.00  0.00     0.163 HD
BRANCH  17  19
HETATM   19  C4  MK1 B 902      15.760  18.969   3.238  1.00 23.47     0.022 C 
HETATM   20  C7  MK1 B 902      15.090  17.713   3.588  1.00 22.75     0.037 C 
HETATM   21  C5  MK1 B 902      17.076  18.533   2.568  1.00 27.66     0.037 C 
HETATM   22  C6  MK1 B 902      14.955  19.638   2.330  1.00 21.71     0.037 C 
ENDBRANCH  17  19
ENDBRANCH   3  15
BRANCH   4  23
HETATM   23  C10 MK1 B 902      15.347  23.425   5.490  1.00 20.86     0.149 C 
BRANCH  23  24
HETATM   24  C11 MK1 B 902      13.965  23.969   5.127  1.00 21.68     0.136 C 
BRANCH  24  25
HETATM   25  O2  MK1 B 902      14.435  25.185   4.627  1.00 15.87    -0.394 OA
HETATM   26  H2  MK1 B 902      15.384  25.176   4.677  1.00  0.00     0.210 HD
ENDBRANCH  24  25
BRANCH  24  27
HETATM   27  C12 MK1 B 902      13.041  23.344   4.066  1.00 21.49     0.047 C 
BRANCH  27  28
HETATM   28  C13 MK1 B 902      11.772  24.076   3.605  1.00 26.89     0.084 C 
BRANCH  28  29
HETATM   29  C21 MK1 B 902      10.856  24.424   4.772  1.00 29.35     0.222 C 
HETATM   30  N4  MK1 B 902      10.392  25.671   4.780  1.00 31.19    -0.350 N 
HETATM   31  H4  MK1 B 902      10.835  26.371   4.185  1.00  0.00     0.163 HD
HETATM   32  O3  MK1 B 902      10.497  23.551   5.576  1.00 32.66    -0.273 OA
BRANCH  30  33
HETATM   33  C22 MK1 B 902       9.270  26.060   5.616  1.00 29.22     0.147 C 
HETATM   34  C30 MK1 B 902       9.566  26.664   7.014  1.00 31.86    -0.027 A 
HETATM   35  C29 MK1 B 902      10.503  26.402   7.963  1.00 27.70     0.010 A 
HETATM   36  C25 MK1 B 902       8.560  27.799   7.358  1.00 31.29    -0.047 A 
HETATM   37  C28 MK1 B 902      10.552  27.111   9.155  1.00 29.01     0.001 A 
HETATM   38  C27 MK1 B 902       9.648  28.143   9.448  1.00 28.00     0.001 A 
HETATM   39  C26 MK1 B 902       8.640  28.492   8.543  1.00 32.00     0.008 A 
HETATM   40  C24 MK1 B 902       7.713  27.830   6.110  1.00 32.05     0.073 C 
HETATM   41  C23 MK1 B 902       8.424  27.143   4.967  1.00 28.82     0.149 C 
BRANCH  41  42
HETATM   42  O4  MK1 B 902       9.242  28.008   4.193  1.00 28.32    -0.393 OA
HETATM   43  H4  MK1 B 902       9.487  27.587   3.377  1.00  0.00     0.210 HD
ENDBRANCH  41  42
ENDBRANCH  30  33
ENDBRANCH  28  29
BRANCH  28  44
HETATM   44  C14 MK1 B 902      10.973  23.263   2.571  1.00 28.67     0.052 C 
BRANCH  44  45
HETATM   45  C15 MK1 B 902       9.665  23.884   2.248  1.00 26.89    -0.057 A 
HETATM   46  C16 MK1 B 902       9.551  25.189   1.763  1.00 29.22     0.007 A 
HETATM   47  C17 MK1 B 902       8.304  25.742   1.509  1.00 29.22     0.001 A 
HETATM   48  C18 MK1 B 902       7.165  24.971   1.750  1.00 30.97     0.000 A 
HETATM   49  C19 MK1 B 902       7.275  23.660   2.229  1.00 29.25     0.001 A 
HETATM   50  C20 MK1 B 902       8.535  23.118   2.479  1.00 29.96     0.007 A 
ENDBRANCH  44  45
ENDBRANCH  28  44
ENDBRANCH  27  28
ENDBRANCH  24  27
ENDBRANCH  23  24
ENDBRANCH   4  23
TORSDOF 14
ENDMDL
MODEL 4
REMARK VINA RESULT:     -10.4      1.991     10.316
REMARK  14 active torsions:
REMARK  status: ('A' for Active; 'I' for Inactive)
REMARK    1  A    between atoms: N1_1  and  C31_43 
REMARK    2  A    between atoms: C2_3  and  C3_4 
REMARK       I    between atoms: C3_4  and  N2_6 
REMARK    3  A    between atoms: N2_6  and  C4_8 
REMARK    4  A    between atoms: N3_12  and  C10_15 
REMARK    5  A    between atoms: C10_15  and  C11_16 
REMARK    6  A    between atoms: C11_16  and  O2_17 
REMARK    7  A    between atoms: C11_16  and  C12_19 
REMARK    8  A    between atoms: C12_19  and  C13_20 
REMARK    9  A    between atoms: C13_20  and  C21_28 
REMARK   10  A    between atoms: C13_20  and  C14_21 
REMARK   11  A    between atoms: C14_21  and  C15_22 
REMARK       I    between atoms: C21_28  and  N4_30 
REMARK   12  A    between atoms: N4_30  and  C22_32 
REMARK   13  A    between atoms: C23_33  and  O4_34 
REMARK   14  A    between atoms: C31_43  and  C32_44 
ROOT
HETATM    1  N1  MK1 B 902      17.114  21.319   8.450  1.00 28.25     0.096 N 
HETATM    2  C1  MK1 B 902      16.482  20.517   7.368  1.00 30.30     0.307 C 
HETATM    3  C2  MK1 B 902      16.309  21.076   5.970  1.00 27.27     0.200 C 
HETATM    4  N3  MK1 B 902      15.486  22.308   6.233  1.00 28.91    -0.395 N 
HETATM    5  C8  MK1 B 902      15.806  23.146   7.416  1.00 26.24     0.148 C 
HETATM    6  C9  MK1 B 902      16.312  22.441   8.658  1.00 27.47     0.292 C 
ENDROOT
BRANCH   1   7
HETATM    7  C31 MK1 B 902      17.504  20.607   9.673  1.00 36.25     0.312 C 
BRANCH   7   8
HETATM    8  C32 MK1 B 902      17.860  19.116   9.650  1.00 42.75    -0.015 A 
HETATM    9  C36 MK1 B 902      17.555  18.369  10.768  1.00 44.71     0.011 A 
HETATM   10  C35 MK1 B 902      17.894  17.018  10.762  1.00 49.34     0.018 A 
HETATM   11  C34 MK1 B 902      18.526  16.463   9.644  1.00 50.60     0.087 A 
HETATM   12  N5  MK1 B 902      18.868  17.146   8.478  1.00 51.38    -0.375 N 
HETATM   13  C33 MK1 B 902      18.494  18.497   8.563  1.00 47.41     0.096 A 
HETATM   14  H5  MK1 B 902      19.328  16.722   7.673  1.00  0.00     0.164 HD
ENDBRANCH   7   8
ENDBRANCH   1   7
BRANCH   3  15
HETATM   15  C3  MK1 B 902      15.589  20.053   5.135  1.00 28.85     0.242 C 
HETATM   16  O1  MK1 B 902      14.493  19.631   5.483  1.00 29.59    -0.271 OA
HETATM   17  N2  MK1 B 902      16.197  19.637   4.042  1.00 22.29    -0.351 N 
HETATM   18  H2  MK1 B 902      17.134  20.016   3.902  1.00  0.00     0.163 HD
BRANCH  17  19
HETATM   19  C4  MK1 B 902      15.755  18.740   3.022  1.00 23.47     0.022 C 
HETATM   20  C7  MK1 B 902      15.111  17.531   3.544  1.00 22.75     0.037 C 
HETATM   21  C5  MK1 B 902      17.014  18.227   2.299  1.00 27.66     0.037 C 
HETATM   22  C6  MK1 B 902      14.884  19.325   2.117  1.00 21.71     0.037 C 
ENDBRANCH  17  19
ENDBRANCH   3  15
BRANCH   4  23
HETATM   23  C10 MK1 B 902      15.192  23.171   5.107  1.00 20.86     0.149 C 
BRANCH  23  24
HETATM   24  C11 MK1 B 902      13.706  23.253   4.752  1.00 21.68     0.136 C 
BRANCH  24  25
HETATM   25  O2  MK1 B 902      13.833  22.600   3.525  1.00 15.87    -0.394 OA
HETATM   26  H2  MK1 B 902      14.716  22.254   3.467  1.00  0.00     0.210 HD
ENDBRANCH  24  25
BRANCH  24  27
HETATM   27  C12 MK1 B 902      12.588  22.557   5.549  1.00 21.49     0.047 C 
BRANCH  27  28
HETATM   28  C13 MK1 B 902      11.230  23.245   5.755  1.00 26.89     0.084 C 
BRANCH  28  29
HETATM   29  C21 MK1 B 902      10.292  23.026   4.574  1.00 29.35     0.222 C 
HETATM   30  N4  MK1 B 902       9.617  24.101   4.175  1.00 31.19    -0.350 N 
HETATM   31  H4  MK1 B 902       9.567  24.914   4.789  1.00  0.00     0.163 HD
HETATM   32  O3  MK1 B 902      10.271  21.939   3.978  1.00 32.66    -0.273 OA
BRANCH  30  33
HETATM   33  C22 MK1 B 902       8.949  24.144   2.886  1.00 29.22     0.147 C 
HETATM   34  C30 MK1 B 902       7.402  24.026   2.852  1.00 31.86    -0.027 A 
HETATM   35  C29 MK1 B 902       6.508  23.298   3.571  1.00 27.70     0.010 A 
HETATM   36  C25 MK1 B 902       6.794  24.948   1.757  1.00 31.29    -0.047 A 
HETATM   37  C28 MK1 B 902       5.142  23.384   3.337  1.00 29.01     0.001 A 
HETATM   38  C27 MK1 B 902       4.604  24.230   2.355  1.00 28.00     0.001 A 
HETATM   39  C26 MK1 B 902       5.436  25.021   1.555  1.00 32.00     0.008 A 
HETATM   40  C24 MK1 B 902       8.035  25.600   1.199  1.00 32.05     0.073 C 
HETATM   41  C23 MK1 B 902       9.191  25.459   2.163  1.00 28.82     0.149 C 
BRANCH  41  42
HETATM   42  O4  MK1 B 902       9.294  26.522   3.098  1.00 28.32    -0.393 OA
HETATM   43  H4  MK1 B 902       9.291  26.182   3.986  1.00  0.00     0.210 HD
ENDBRANCH  41  42
ENDBRANCH  30  33
ENDBRANCH  28  29
BRANCH  28  44
HETATM   44  C14 MK1 B 902      11.375  24.757   6.002  1.00 28.67     0.052 C 
BRANCH  44  45
HETATM   45  C15 MK1 B 902      11.049  25.138   7.399  1.00 26.89    -0.057 A 
HETATM   46  C16 MK1 B 902      11.990  25.697   8.265  1.00 29.22     0.007 A 
HETATM   47  C17 MK1 B 902      11.651  26.004   9.575  1.00 29.22     0.001 A 
HETATM   48  C18 MK1 B 902      10.351  25.741  10.012  1.00 30.97     0.000 A 
HETATM   49  C19 MK1 B 902       9.402  25.187   9.145  1.00 29.25     0.001 A 
HETATM   50  C20 MK1 B 902       9.758  24.885   7.830  1.00 29.96     0.007 A 
ENDBRANCH  44  45
ENDBRANCH  28  44
ENDBRANCH  27  28
ENDBRANCH  24  27
ENDBRANCH  23  24
ENDBRANCH   4  23
TORSDOF 14
ENDMDL
MODEL 5
REMARK VINA RESULT:     -10.2      2.023     10.453
REMARK  14 active torsions:
REMARK  status: ('A' for Active; 'I' for Inactive)
REMARK    1  A    between atoms: N1_1  and  C31_43 
REMARK    2  A    between atoms: C2_3  and  C3_4 
REMARK       I    between atoms: C3_4  and  N2_6 
REMARK    3  A    between atoms: N2_6  and  C4_8 
REMARK    4  A    between atoms: N3_12  and  C10_15 
REMARK    5  A    between atoms: C10_15  and  C11_16 
REMARK    6  A    between atoms: C11_16  and  O2_17 
REMARK    7  A    between atoms: C11_16  and  C12_19 
REMARK    8  A    between atoms: C12_19  and  C13_20 
REMARK    9  A    between atoms: C13_20  and  C21_28 
REMARK   10  A    between atoms: C13_20  and  C14_21 
REMARK   11  A    between atoms: C14_21  and  C15_22 
REMARK       I    between atoms: C21_28  and  N4_30 
REMARK   12  A    between atoms: N4_30  and  C22_32 
REMARK   13  A    between atoms: C23_33  and  O4_34 
REMARK   14  A    between atoms: C31_43  and  C32_44 
ROOT
HETATM    1  N1  MK1 B 902      15.876  22.275   7.740  1.00 28.25     0.096 N 
HETATM    2  C1  MK1 B 902      15.963  21.381   6.555  1.00 30.30     0.307 C 
HETATM    3  C2  MK1 B 902      15.147  21.647   5.305  1.00 27.27     0.200 C 
HETATM    4  N3  MK1 B 902      13.743  21.633   5.848  1.00 28.91    -0.395 N 
HETATM    5  C8  MK1 B 902      13.473  22.282   7.155  1.00 26.24     0.148 C 
HETATM    6  C9  MK1 B 902      14.563  22.222   8.206  1.00 27.47     0.292 C 
ENDROOT
BRANCH   1   7
HETATM    7  C31 MK1 B 902      16.903  22.117   8.777  1.00 36.25     0.312 C 
BRANCH   7   8
HETATM    8  C32 MK1 B 902      17.206  20.749   9.399  1.00 42.75    -0.015 A 
HETATM    9  C36 MK1 B 902      18.521  20.335   9.424  1.00 44.71     0.011 A 
HETATM   10  C35 MK1 B 902      18.801  19.085   9.970  1.00 49.34     0.018 A 
HETATM   11  C34 MK1 B 902      17.761  18.293  10.466  1.00 50.60     0.087 A 
HETATM   12  N5  MK1 B 902      16.410  18.635  10.479  1.00 51.38    -0.375 N 
HETATM   13  C33 MK1 B 902      16.212  19.905   9.915  1.00 47.41     0.096 A 
HETATM   14  H5  MK1 B 902      15.666  18.042  10.847  1.00  0.00     0.164 HD
ENDBRANCH   7   8
ENDBRANCH   1   7
BRANCH   3  15
HETATM   15  C3  MK1 B 902      15.410  20.539   4.322  1.00 28.85     0.242 C 
HETATM   16  O1  MK1 B 902      15.042  20.644   3.159  1.00 29.59    -0.271 OA
HETATM   17  N2  MK1 B 902      16.032  19.469   4.779  1.00 22.29    -0.351 N 
HETATM   18  H2  MK1 B 902      16.223  19.480   5.781  1.00  0.00     0.163 HD
BRANCH  17  19
HETATM   19  C4  MK1 B 902      16.480  18.298   4.095  1.00 23.47     0.022 C 
HETATM   20  C7  MK1 B 902      17.178  18.585   2.838  1.00 22.75     0.037 C 
HETATM   21  C5  MK1 B 902      15.224  17.517   3.671  1.00 27.66     0.037 C 
HETATM   22  C6  MK1 B 902      17.309  17.498   4.865  1.00 21.71     0.037 C 
ENDBRANCH  17  19
ENDBRANCH   3  15
BRANCH   4  23
HETATM   23  C10 MK1 B 902      12.667  21.949   4.931  1.00 20.86     0.149 C 
BRANCH  23  24
HETATM   24  C11 MK1 B 902      12.713  23.374   4.378  1.00 21.68     0.136 C 
BRANCH  24  25
HETATM   25  O2  MK1 B 902      12.970  22.990   3.061  1.00 15.87    -0.394 OA
HETATM   26  H2  MK1 B 902      13.105  22.049   3.050  1.00  0.00     0.210 HD
ENDBRANCH  24  25
BRANCH  24  27
HETATM   27  C12 MK1 B 902      11.512  24.337   4.368  1.00 21.49     0.047 C 
BRANCH  27  28
HETATM   28  C13 MK1 B 902      10.214  23.975   5.104  1.00 26.89     0.084 C 
BRANCH  28  29
HETATM   29  C21 MK1 B 902       9.167  23.389   4.165  1.00 29.35     0.222 C 
HETATM   30  N4  MK1 B 902       8.073  24.129   3.998  1.00 31.19    -0.350 N 
HETATM   31  H4  MK1 B 902       7.880  24.886   4.653  1.00  0.00     0.163 HD
HETATM   32  O3  MK1 B 902       9.400  22.351   3.528  1.00 32.66    -0.273 OA
BRANCH  30  33
HETATM   33  C22 MK1 B 902       7.148  23.882   2.906  1.00 29.22     0.147 C 
HETATM   34  C30 MK1 B 902       5.696  23.457   3.250  1.00 31.86    -0.027 A 
HETATM   35  C29 MK1 B 902       5.162  22.659   4.212  1.00 27.70     0.010 A 
HETATM   36  C25 MK1 B 902       4.676  24.101   2.268  1.00 31.29    -0.047 A 
HETATM   37  C28 MK1 B 902       3.794  22.444   4.305  1.00 29.01     0.001 A 
HETATM   38  C27 MK1 B 902       2.883  23.042   3.421  1.00 28.00     0.001 A 
HETATM   39  C26 MK1 B 902       3.325  23.878   2.391  1.00 32.00     0.008 A 
HETATM   40  C24 MK1 B 902       5.591  24.913   1.385  1.00 32.05     0.073 C 
HETATM   41  C23 MK1 B 902       6.930  25.121   2.053  1.00 28.82     0.149 C 
BRANCH  41  42
HETATM   42  O4  MK1 B 902       6.997  26.290   2.857  1.00 28.32    -0.393 OA
HETATM   43  H4  MK1 B 902       7.164  26.056   3.763  1.00  0.00     0.210 HD
ENDBRANCH  41  42
ENDBRANCH  30  33
ENDBRANCH  28  29
BRANCH  28  44
HETATM   44  C14 MK1 B 902       9.605  25.182   5.838  1.00 28.67     0.052 C 
BRANCH  44  45
HETATM   45  C15 MK1 B 902      10.267  25.449   7.139  1.00 26.89    -0.057 A 
HETATM   46  C16 MK1 B 902      11.650  25.595   7.264  1.00 29.22     0.007 A 
HETATM   47  C17 MK1 B 902      12.230  25.807   8.506  1.00 29.22     0.001 A 
HETATM   48  C18 MK1 B 902      11.405  25.870   9.631  1.00 30.97     0.000 A 
HETATM   49  C19 MK1 B 902      10.017  25.732   9.510  1.00 29.25     0.001 A 
HETATM   50  C20 MK1 B 902       9.449  25.520   8.254  1.00 29.96     0.007 A 
ENDBRANCH  44  45
ENDBRANCH  28  44
ENDBRANCH  27  28
ENDBRANCH  24  27
ENDBRANCH  23  24
ENDBRANCH   4  23
TORSDOF 14
ENDMDL
MODEL 6
REMARK VINA RESULT:     -10.1      2.156     10.736
REMARK  14 active torsions:
REMARK  status: ('A' for Active; 'I' for Inactive)
REMARK    1  A    between atoms: N1_1  and  C31_43 
REMARK    2  A    between atoms: C2_3  and  C3_4 
REMARK       I    between atoms: C3_4  and  N2_6 
REMARK    3  A    between atoms: N2_6  and  C4_8 
REMARK    4  A    between atoms: N3_12  and  C10_15 
REMARK    5  A    between atoms: C10_15  and  C11_16 
REMARK    6  A    between atoms: C11_16  and  O2_17 
REMARK    7  A    between atoms: C11_16  and  C12_19 
REMARK    8  A    between atoms: C12_19  and  C13_20 
REMARK    9  A    between atoms: C13_20  and  C21_28 
REMARK   10  A    between atoms: C13_20  and  C14_21 
REMARK   11  A    between atoms: C14_21  and  C15_22 
REMARK       I    between atoms: C21_28  and  N4_30 
REMARK   12  A    between atoms: N4_30  and  C22_32 
REMARK   13  A    between atoms: C23_33  and  O4_34 
REMARK   14  A    between atoms: C31_43  and  C32_44 
ROOT
HETATM    1  N1  MK1 B 902      17.249  20.639   9.088  1.00 28.25     0.096 N 
HETATM    2  C1  MK1 B 902      16.959  20.308   7.667  1.00 30.30     0.307 C 
HETATM    3  C2  MK1 B 902      16.114  21.221   6.801  1.00 27.27     0.200 C 
HETATM    4  N3  MK1 B 902      14.828  21.277   7.580  1.00 28.91    -0.395 N 
HETATM    5  C8  MK1 B 902      14.889  21.379   9.059  1.00 26.24     0.148 C 
HETATM    6  C9  MK1 B 902      16.030  20.674   9.764  1.00 27.47     0.292 C 
ENDROOT
BRANCH   1   7
HETATM    7  C31 MK1 B 902      18.301  19.865   9.757  1.00 36.25     0.312 C 
BRANCH   7   8
HETATM    8  C32 MK1 B 902      18.168  18.352   9.968  1.00 42.75    -0.015 A 
HETATM    9  C36 MK1 B 902      17.570  17.918  11.131  1.00 44.71     0.011 A 
HETATM   10  C35 MK1 B 902      17.464  16.545  11.337  1.00 49.34     0.018 A 
HETATM   11  C34 MK1 B 902      17.961  15.656  10.379  1.00 50.60     0.087 A 
HETATM   12  N5  MK1 B 902      18.578  16.010   9.181  1.00 51.38    -0.375 N 
HETATM   13  C33 MK1 B 902      18.645  17.407   9.048  1.00 47.41     0.096 A 
HETATM   14  H5  MK1 B 902      18.933  15.345   8.493  1.00  0.00     0.164 HD
ENDBRANCH   7   8
ENDBRANCH   1   7
BRANCH   3  15
HETATM   15  C3  MK1 B 902      15.957  20.580   5.448  1.00 28.85     0.242 C 
HETATM   16  O1  MK1 B 902      15.988  21.263   4.433  1.00 29.59    -0.271 OA
HETATM   17  N2  MK1 B 902      15.775  19.274   5.423  1.00 22.29    -0.351 N 
HETATM   18  H2  MK1 B 902      15.702  18.834   6.340  1.00  0.00     0.163 HD
BRANCH  17  19
HETATM   19  C4  MK1 B 902      15.664  18.378   4.317  1.00 23.47     0.022 C 
HETATM   20  C7  MK1 B 902      14.997  17.115   4.651  1.00 22.75     0.037 C 
HETATM   21  C5  MK1 B 902      17.095  17.968   3.926  1.00 27.66     0.037 C 
HETATM   22  C6  MK1 B 902      15.005  18.927   3.229  1.00 21.71     0.037 C 
ENDBRANCH  17  19
ENDBRANCH   3  15
BRANCH   4  23
HETATM   23  C10 MK1 B 902      13.784  22.153   7.087  1.00 20.86     0.149 C 
BRANCH  23  24
HETATM   24  C11 MK1 B 902      12.732  21.452   6.227  1.00 21.68     0.136 C 
BRANCH  24  25
HETATM   25  O2  MK1 B 902      11.811  21.287   7.263  1.00 15.87    -0.394 OA
HETATM   26  H2  MK1 B 902      10.940  21.403   6.903  1.00  0.00     0.210 HD
ENDBRANCH  24  25
BRANCH  24  27
HETATM   27  C12 MK1 B 902      12.003  22.113   5.043  1.00 21.49     0.047 C 
BRANCH  27  28
HETATM   28  C13 MK1 B 902      12.705  23.178   4.189  1.00 26.89     0.084 C 
BRANCH  28  29
HETATM   29  C21 MK1 B 902      12.558  24.575   4.779  1.00 29.35     0.222 C 
HETATM   30  N4  MK1 B 902      11.455  24.777   5.496  1.00 31.19    -0.350 N 
HETATM   31  H4  MK1 B 902      10.683  24.115   5.420  1.00  0.00     0.163 HD
HETATM   32  O3  MK1 B 902      13.474  25.404   4.677  1.00 32.66    -0.273 OA
BRANCH  30  33
HETATM   33  C22 MK1 B 902      11.323  25.919   6.384  1.00 29.22     0.147 C 
HETATM   34  C30 MK1 B 902       9.979  26.693   6.396  1.00 31.86    -0.027 A 
HETATM   35  C29 MK1 B 902       9.088  27.029   5.427  1.00 27.70     0.010 A 
HETATM   36  C25 MK1 B 902       9.615  27.160   7.835  1.00 31.29    -0.047 A 
HETATM   37  C28 MK1 B 902       7.930  27.739   5.714  1.00 29.01     0.001 A 
HETATM   38  C27 MK1 B 902       7.606  28.142   7.018  1.00 28.00     0.001 A 
HETATM   39  C26 MK1 B 902       8.455  27.852   8.091  1.00 32.00     0.008 A 
HETATM   40  C24 MK1 B 902      10.775  26.607   8.625  1.00 32.05     0.073 C 
HETATM   41  C23 MK1 B 902      11.488  25.529   7.843  1.00 28.82     0.149 C 
BRANCH  41  42
HETATM   42  O4  MK1 B 902      10.974  24.223   8.063  1.00 28.32    -0.393 OA
HETATM   43  H4  MK1 B 902      11.535  23.575   7.652  1.00  0.00     0.210 HD
ENDBRANCH  41  42
ENDBRANCH  30  33
ENDBRANCH  28  29
BRANCH  28  44
HETATM   44  C14 MK1 B 902      12.191  23.194   2.738  1.00 28.67     0.052 C 
BRANCH  44  45
HETATM   45  C15 MK1 B 902      10.726  23.419   2.657  1.00 26.89    -0.057 A 
HETATM   46  C16 MK1 B 902      10.172  24.661   2.340  1.00 29.22     0.007 A 
HETATM   47  C17 MK1 B 902       8.796  24.834   2.312  1.00 29.22     0.001 A 
HETATM   48  C18 MK1 B 902       7.975  23.745   2.609  1.00 30.97     0.000 A 
HETATM   49  C19 MK1 B 902       8.526  22.496   2.920  1.00 29.25     0.001 A 
HETATM   50  C20 MK1 B 902       9.912  22.337   2.943  1.00 29.96     0.007 A 
ENDBRANCH  44  45
ENDBRANCH  28  44
ENDBRANCH  27  28
ENDBRANCH  24  27
ENDBRANCH  23  24
ENDBRANCH   4  23
TORSDOF 14
ENDMDL
MODEL 7
REMARK VINA RESULT:     -10.1      2.024     10.747
REMARK  14 active torsions:
REMARK  status: ('A' for Active; 'I' for Inactive)
REMARK    1  A    between atoms: N1_1  and  C31_43 
REMARK    2  A    between atoms: C2_3  and  C3_4 
REMARK       I    between atoms: C3_4  and  N2_6 
REMARK    3  A    between atoms: N2_6  and  C4_8 
REMARK    4  A    between atoms: N3_12  and  C10_15 
REMARK    5  A    between atoms: C10_15  and  C11_16 
REMARK    6  A    between atoms: C11_16  and  O2_17 
REMARK    7  A    between atoms: C11_16  and  C12_19 
REMARK    8  A    between atoms: C12_19  and  C13_20 
REMARK    9  A    between atoms: C13_20  and  C21_28 
REMARK   10  A    between atoms: C13_20  and  C14_21 
REMARK   11  A    between atoms: C14_21  and  C15_22 
REMARK       I    between atoms: C21_28  and  N4_30 
REMARK   12  A    between atoms: N4_30  and  C22_32 
REMARK   13  A    between atoms: C23_33  and  O4_34 
REMARK   14  A    between atoms: C31_43  and  C32_44 
ROOT
HETATM    1  N1  MK1 B 902      15.435  23.056   6.249  1.00 28.25     0.096 N 
HETATM    2  C1  MK1 B 902      15.504  21.812   5.438  1.00 30.30     0.307 C 
HETATM    3  C2  MK1 B 902      14.981  21.767   4.016  1.00 27.27     0.200 C 
HETATM    4  N3  MK1 B 902      13.543  22.166   4.207  1.00 28.91    -0.395 N 
HETATM    5  C8  MK1 B 902      13.221  23.255   5.164  1.00 26.24     0.148 C 
HETATM    6  C9  MK1 B 902      14.087  23.379   6.401  1.00 27.47     0.292 C 
ENDROOT
BRANCH   1   7
HETATM    7  C31 MK1 B 902      16.219  23.095   7.489  1.00 36.25     0.312 C 
BRANCH   7   8
HETATM    8  C32 MK1 B 902      16.218  21.918   8.472  1.00 42.75    -0.015 A 
HETATM    9  C36 MK1 B 902      15.314  21.954   9.512  1.00 44.71     0.011 A 
HETATM   10  C35 MK1 B 902      15.321  20.898  10.419  1.00 49.34     0.018 A 
HETATM   11  C34 MK1 B 902      16.230  19.847  10.259  1.00 50.60     0.087 A 
HETATM   12  N5  MK1 B 902      17.174  19.734   9.239  1.00 51.38    -0.375 N 
HETATM   13  C33 MK1 B 902      17.102  20.834   8.369  1.00 47.41     0.096 A 
HETATM   14  H5  MK1 B 902      17.828  18.958   9.139  1.00  0.00     0.164 HD
ENDBRANCH   7   8
ENDBRANCH   1   7
BRANCH   3  15
HETATM   15  C3  MK1 B 902      15.139  20.364   3.496  1.00 28.85     0.242 C 
HETATM   16  O1  MK1 B 902      14.675  20.052   2.407  1.00 29.59    -0.271 OA
HETATM   17  N2  MK1 B 902      15.779  19.508   4.269  1.00 22.29    -0.351 N 
HETATM   18  H2  MK1 B 902      16.055  19.877   5.179  1.00  0.00     0.163 HD
BRANCH  17  19
HETATM   19  C4  MK1 B 902      16.146  18.148   4.036  1.00 23.47     0.022 C 
HETATM   20  C7  MK1 B 902      16.407  17.845   2.626  1.00 22.75     0.037 C 
HETATM   21  C5  MK1 B 902      14.924  17.284   4.398  1.00 27.66     0.037 C 
HETATM   22  C6  MK1 B 902      17.254  17.746   4.766  1.00 21.71     0.037 C 
ENDBRANCH  17  19
ENDBRANCH   3  15
BRANCH   4  23
HETATM   23  C10 MK1 B 902      12.727  22.323   3.020  1.00 20.86     0.149 C 
BRANCH  23  24
HETATM   24  C11 MK1 B 902      11.499  23.213   3.217  1.00 21.68     0.136 C 
BRANCH  24  25
HETATM   25  O2  MK1 B 902      11.746  24.018   2.103  1.00 15.87    -0.394 OA
HETATM   26  H2  MK1 B 902      11.913  23.449   1.361  1.00  0.00     0.210 HD
ENDBRANCH  24  25
BRANCH  24  27
HETATM   27  C12 MK1 B 902      10.045  22.712   3.130  1.00 21.49     0.047 C 
BRANCH  27  28
HETATM   28  C13 MK1 B 902       8.878  23.708   3.077  1.00 26.89     0.084 C 
BRANCH  28  29
HETATM   29  C21 MK1 B 902       9.174  24.980   3.862  1.00 29.35     0.222 C 
HETATM   30  N4  MK1 B 902       9.308  24.821   5.176  1.00 31.19    -0.350 N 
HETATM   31  H4  MK1 B 902       8.982  23.957   5.609  1.00  0.00     0.163 HD
HETATM   32  O3  MK1 B 902       9.383  26.051   3.273  1.00 32.66    -0.273 OA
BRANCH  30  33
HETATM   33  C22 MK1 B 902       9.907  25.849   6.010  1.00 29.22     0.147 C 
HETATM   34  C30 MK1 B 902       8.984  26.663   6.955  1.00 31.86    -0.027 A 
HETATM   35  C29 MK1 B 902       7.720  27.148   6.833  1.00 27.70     0.010 A 
HETATM   36  C25 MK1 B 902       9.691  26.962   8.307  1.00 31.29    -0.047 A 
HETATM   37  C28 MK1 B 902       7.109  27.857   7.857  1.00 29.01     0.001 A 
HETATM   38  C27 MK1 B 902       7.752  28.109   9.079  1.00 28.00     0.001 A 
HETATM   39  C26 MK1 B 902       9.057  27.659   9.309  1.00 32.00     0.008 A 
HETATM   40  C24 MK1 B 902      11.019  26.275   8.103  1.00 32.05     0.073 C 
HETATM   41  C23 MK1 B 902      10.933  25.276   6.973  1.00 28.82     0.149 C 
BRANCH  41  42
HETATM   42  O4  MK1 B 902      10.548  23.972   7.384  1.00 28.32    -0.393 OA
HETATM   43  H4  MK1 B 902      10.162  23.498   6.656  1.00  0.00     0.210 HD
ENDBRANCH  41  42
ENDBRANCH  30  33
ENDBRANCH  28  29
BRANCH  28  44
HETATM   44  C14 MK1 B 902       7.566  23.095   3.599  1.00 28.67     0.052 C 
BRANCH  44  45
HETATM   45  C15 MK1 B 902       6.372  23.620   2.890  1.00 26.89    -0.057 A 
HETATM   46  C16 MK1 B 902       6.456  24.274   1.659  1.00 29.22     0.007 A 
HETATM   47  C17 MK1 B 902       5.318  24.781   1.049  1.00 29.22     0.001 A 
HETATM   48  C18 MK1 B 902       4.087  24.628   1.690  1.00 30.97     0.000 A 
HETATM   49  C19 MK1 B 902       3.997  23.966   2.921  1.00 29.25     0.001 A 
HETATM   50  C20 MK1 B 902       5.151  23.461   3.521  1.00 29.96     0.007 A 
ENDBRANCH  44  45
ENDBRANCH  28  44
ENDBRANCH  27  28
ENDBRANCH  24  27
ENDBRANCH  23  24
ENDBRANCH   4  23
TORSDOF 14
ENDMDL
MODEL 8
REMARK VINA RESULT:     -10.0      2.494     11.215
REMARK  14 active torsions:
REMARK  status: ('A' for Active; 'I' for Inactive)
REMARK    1  A    between atoms: N1_1  and  C31_43 
REMARK    2  A    between atoms: C2_3  and  C3_4 
REMARK       I    between atoms: C3_4  and  N2_6 
REMARK    3  A    between atoms: N2_6  and  C4_8 
REMARK    4  A    between atoms: N3_12  and  C10_15 
REMARK    5  A    between atoms: C10_15  and  C11_16 
REMARK    6  A    between atoms: C11_16  and  O2_17 
REMARK    7  A    between atoms: C11_16  and  C12_19 
REMARK    8  A    between atoms: C12_19  and  C13_20 
REMARK    9  A    between atoms: C13_20  and  C21_28 
REMARK   10  A    between atoms: C13_20  and  C14_21 
REMARK   11  A    between atoms: C14_21  and  C15_22 
REMARK       I    between atoms: C21_28  and  N4_30 
REMARK   12  A    between atoms: N4_30  and  C22_32 
REMARK   13  A    between atoms: C23_33  and  O4_34 
REMARK   14  A    between atoms: C31_43  and  C32_44 
ROOT
HETATM    1  N1  MK1 B 902      18.085  19.661   9.727  1.00 28.25     0.096 N 
HETATM    2  C1  MK1 B 902      18.112  19.277   8.291  1.00 30.30     0.307 C 
HETATM    3  C2  MK1 B 902      17.751  20.268   7.202  1.00 27.27     0.200 C 
HETATM    4  N3  MK1 B 902      16.352  20.658   7.596  1.00 28.91    -0.395 N 
HETATM    5  C8  MK1 B 902      16.043  20.872   9.032  1.00 26.24     0.148 C 
HETATM    6  C9  MK1 B 902      16.771  20.007  10.041  1.00 27.47     0.292 C 
ENDROOT
BRANCH   1   7
HETATM    7  C31 MK1 B 902      18.724  18.746  10.680  1.00 36.25     0.312 C 
BRANCH   7   8
HETATM    8  C32 MK1 B 902      18.556  17.226  10.563  1.00 42.75    -0.015 A 
HETATM    9  C36 MK1 B 902      17.451  16.657  11.160  1.00 44.71     0.011 A 
HETATM   10  C35 MK1 B 902      17.303  15.275  11.075  1.00 49.34     0.018 A 
HETATM   11  C34 MK1 B 902      18.261  14.512  10.399  1.00 50.60     0.087 A 
HETATM   12  N5  MK1 B 902      19.402  15.006   9.770  1.00 51.38    -0.375 N 
HETATM   13  C33 MK1 B 902      19.478  16.403   9.901  1.00 47.41     0.096 A 
HETATM   14  H5  MK1 B 902      20.089  14.432   9.281  1.00  0.00     0.164 HD
ENDBRANCH   7   8
ENDBRANCH   1   7
BRANCH   3  15
HETATM   15  C3  MK1 B 902      17.815  19.561   5.876  1.00 28.85     0.242 C 
HETATM   16  O1  MK1 B 902      18.796  19.687   5.154  1.00 29.59    -0.271 OA
HETATM   17  N2  MK1 B 902      16.772  18.827   5.539  1.00 22.29    -0.351 N 
HETATM   18  H2  MK1 B 902      15.994  18.861   6.197  1.00  0.00     0.163 HD
BRANCH  17  19
HETATM   19  C4  MK1 B 902      16.559  17.993   4.400  1.00 23.47     0.022 C 
HETATM   20  C7  MK1 B 902      16.386  18.741   3.150  1.00 22.75     0.037 C 
HETATM   21  C5  MK1 B 902      15.211  17.279   4.612  1.00 27.66     0.037 C 
HETATM   22  C6  MK1 B 902      17.570  17.066   4.200  1.00 21.71     0.037 C 
ENDBRANCH  17  19
ENDBRANCH   3  15
BRANCH   4  23
HETATM   23  C10 MK1 B 902      15.697  21.687   6.813  1.00 20.86     0.149 C 
BRANCH  23  24
HETATM   24  C11 MK1 B 902      15.211  22.883   7.633  1.00 21.68     0.136 C 
BRANCH  24  25
HETATM   25  O2  MK1 B 902      16.001  23.822   6.966  1.00 15.87    -0.394 OA
HETATM   26  H2  MK1 B 902      16.912  23.606   7.126  1.00  0.00     0.210 HD
ENDBRANCH  24  25
BRANCH  24  27
HETATM   27  C12 MK1 B 902      13.760  23.398   7.635  1.00 21.49     0.047 C 
BRANCH  27  28
HETATM   28  C13 MK1 B 902      13.050  23.738   6.317  1.00 26.89     0.084 C 
BRANCH  28  29
HETATM   29  C21 MK1 B 902      12.278  25.050   6.404  1.00 29.35     0.222 C 
HETATM   30  N4  MK1 B 902      11.305  25.079   7.310  1.00 31.19    -0.350 N 
HETATM   31  H4  MK1 B 902      10.971  24.203   7.711  1.00  0.00     0.163 HD
HETATM   32  O3  MK1 B 902      12.635  26.036   5.743  1.00 32.66    -0.273 OA
BRANCH  30  33
HETATM   33  C22 MK1 B 902      10.707  26.331   7.744  1.00 29.22     0.147 C 
HETATM   34  C30 MK1 B 902       9.459  26.853   6.985  1.00 31.86    -0.027 A 
HETATM   35  C29 MK1 B 902       9.092  26.843   5.677  1.00 27.70     0.010 A 
HETATM   36  C25 MK1 B 902       8.447  27.517   7.962  1.00 31.29    -0.047 A 
HETATM   37  C28 MK1 B 902       7.887  27.387   5.253  1.00 29.01     0.001 A 
HETATM   38  C27 MK1 B 902       6.976  27.971   6.146  1.00 28.00     0.001 A 
HETATM   39  C26 MK1 B 902       7.256  28.038   7.515  1.00 32.00     0.008 A 
HETATM   40  C24 MK1 B 902       9.149  27.329   9.285  1.00 32.05     0.073 C 
HETATM   41  C23 MK1 B 902      10.210  26.258   9.177  1.00 28.82     0.149 C 
BRANCH  41  42
HETATM   42  O4  MK1 B 902       9.739  24.950   9.469  1.00 28.32    -0.393 OA
HETATM   43  H4  MK1 B 902       9.442  24.901  10.370  1.00  0.00     0.210 HD
ENDBRANCH  41  42
ENDBRANCH  30  33
ENDBRANCH  28  29
BRANCH  28  44
HETATM   44  C14 MK1 B 902      12.088  22.624   5.868  1.00 28.67     0.052 C 
BRANCH  44  45
HETATM   45  C15 MK1 B 902      11.330  22.987   4.644  1.00 26.89    -0.057 A 
HETATM   46  C16 MK1 B 902       9.938  23.095   4.626  1.00 29.22     0.007 A 
HETATM   47  C17 MK1 B 902       9.269  23.400   3.450  1.00 29.22     0.001 A 
HETATM   48  C18 MK1 B 902      10.012  23.596   2.284  1.00 30.97     0.000 A 
HETATM   49  C19 MK1 B 902      11.409  23.496   2.300  1.00 29.25     0.001 A 
HETATM   50  C20 MK1 B 902      12.068  23.189   3.490  1.00 29.96     0.007 A 
ENDBRANCH  44  45
ENDBRANCH  28  44
ENDBRANCH  27  28
ENDBRANCH  24  27
ENDBRANCH  23  24
ENDBRANCH   4  23
TORSDOF 14
ENDMDL
MODEL 9
REMARK VINA RESULT:      -9.9      2.631      5.535
REMARK  14 active torsions:
REMARK  status: ('A' for Active; 'I' for Inactive)
REMARK    1  A    between atoms: N1_1  and  C31_43 
REMARK    2  A    between atoms: C2_3  and  C3_4 
REMARK       I    between atoms: C3_4  and  N2_6 
REMARK    3  A    between atoms: N2_6  and  C4_8 
REMARK    4  A    between atoms: N3_12  and  C10_15 
REMARK    5  A    between atoms: C10_15  and  C11_16 
REMARK    6  A    between atoms: C11_16  and  O2_17 
REMARK    7  A    between atoms: C11_16  and  C12_19 
REMARK    8  A    between atoms: C12_19  and  C13_20 
REMARK    9  A    between atoms: C13_20  and  C21_28 
REMARK   10  A    between atoms: C13_20  and  C14_21 
REMARK   11  A    between atoms: C14_21  and  C15_22 
REMARK       I    between atoms: C21_28  and  N4_30 
REMARK   12  A    between atoms: N4_30  and  C22_32 
REMARK   13  A    between atoms: C23_33  and  O4_34 
REMARK   14  A    between atoms: C31_43  and  C32_44 
ROOT
HETATM    1  N1  MK1 B 902       7.687  26.937   5.877  1.00 28.25     0.096 N 
HETATM    2  C1  MK1 B 902       7.008  26.603   4.596  1.00 30.30     0.307 C 
HETATM    3  C2  MK1 B 902       7.421  25.396   3.776  1.00 27.27     0.200 C 
HETATM    4  N3  MK1 B 902       8.875  25.687   3.517  1.00 28.91    -0.395 N 
HETATM    5  C8  MK1 B 902       9.700  26.252   4.614  1.00 26.24     0.148 C 
HETATM    6  C9  MK1 B 902       9.024  27.201   5.582  1.00 27.47     0.292 C 
ENDROOT
BRANCH   1   7
HETATM    7  C31 MK1 B 902       7.040  27.931   6.741  1.00 36.25     0.312 C 
BRANCH   7   8
HETATM    8  C32 MK1 B 902       5.515  28.092   6.772  1.00 42.75    -0.015 A 
HETATM    9  C36 MK1 B 902       4.780  27.098   7.382  1.00 44.71     0.011 A 
HETATM   10  C35 MK1 B 902       3.393  27.228   7.395  1.00 49.34     0.018 A 
HETATM   11  C34 MK1 B 902       2.792  28.340   6.798  1.00 50.60     0.087 A 
HETATM   12  N5  MK1 B 902       3.460  29.386   6.163  1.00 51.38    -0.375 N 
HETATM   13  C33 MK1 B 902       4.849  29.181   6.193  1.00 47.41     0.096 A 
HETATM   14  H5  MK1 B 902       3.002  30.190   5.734  1.00  0.00     0.164 HD
ENDBRANCH   7   8
ENDBRANCH   1   7
BRANCH   3  15
HETATM   15  C3  MK1 B 902       6.592  25.371   2.521  1.00 28.85     0.242 C 
HETATM   16  O1  MK1 B 902       7.068  25.747   1.457  1.00 29.59    -0.271 OA
HETATM   17  N2  MK1 B 902       5.350  24.943   2.633  1.00 22.29    -0.351 N 
HETATM   18  H2  MK1 B 902       5.056  24.724   3.585  1.00  0.00     0.163 HD
BRANCH  17  19
HETATM   19  C4  MK1 B 902       4.349  24.738   1.635  1.00 23.47     0.022 C 
HETATM   20  C7  MK1 B 902       3.584  25.947   1.316  1.00 22.75     0.037 C 
HETATM   21  C5  MK1 B 902       3.311  23.770   2.232  1.00 27.66     0.037 C 
HETATM   22  C6  MK1 B 902       4.853  24.232   0.448  1.00 21.71     0.037 C 
ENDBRANCH  17  19
ENDBRANCH   3  15
BRANCH   4  23
HETATM   23  C10 MK1 B 902       9.645  24.679   2.816  1.00 20.86     0.149 C 
BRANCH  23  24
HETATM   24  C11 MK1 B 902      10.016  23.467   3.672  1.00 21.68     0.136 C 
BRANCH  24  25
HETATM   25  O2  MK1 B 902       9.473  22.524   2.797  1.00 15.87    -0.394 OA
HETATM   26  H2  MK1 B 902      10.170  22.212   2.232  1.00  0.00     0.210 HD
ENDBRANCH  24  25
BRANCH  24  27
HETATM   27  C12 MK1 B 902      11.462  23.044   3.990  1.00 21.49     0.047 C 
BRANCH  27  28
HETATM   28  C13 MK1 B 902      11.955  22.976   5.443  1.00 26.89     0.084 C 
BRANCH  28  29
HETATM   29  C21 MK1 B 902      12.637  21.650   5.756  1.00 29.35     0.222 C 
HETATM   30  N4  MK1 B 902      13.686  21.355   4.993  1.00 31.19    -0.350 N 
HETATM   31  H4  MK1 B 902      13.832  21.870   4.125  1.00  0.00     0.163 HD
HETATM   32  O3  MK1 B 902      12.284  20.974   6.734  1.00 32.66    -0.273 OA
BRANCH  30  33
HETATM   33  C22 MK1 B 902      14.629  20.314   5.366  1.00 29.22     0.147 C 
HETATM   34  C30 MK1 B 902      15.423  19.600   4.240  1.00 31.86    -0.027 A 
HETATM   35  C29 MK1 B 902      15.102  19.205   2.980  1.00 27.70     0.010 A 
HETATM   36  C25 MK1 B 902      16.880  19.296   4.690  1.00 31.29    -0.047 A 
HETATM   37  C28 MK1 B 902      16.025  18.575   2.156  1.00 29.01     0.001 A 
HETATM   38  C27 MK1 B 902      17.341  18.318   2.569  1.00 28.00     0.001 A 
HETATM   39  C26 MK1 B 902      17.777  18.681   3.848  1.00 32.00     0.008 A 
HETATM   40  C24 MK1 B 902      16.886  19.879   6.082  1.00 32.05     0.073 C 
HETATM   41  C23 MK1 B 902      15.737  20.843   6.261  1.00 28.82     0.149 C 
BRANCH  41  42
HETATM   42  O4  MK1 B 902      16.051  22.184   5.913  1.00 28.32    -0.393 OA
HETATM   43  H4  MK1 B 902      16.945  22.241   5.596  1.00  0.00     0.210 HD
ENDBRANCH  41  42
ENDBRANCH  30  33
ENDBRANCH  28  29
BRANCH  28  44
HETATM   44  C14 MK1 B 902      10.818  23.203   6.455  1.00 28.67     0.052 C 
BRANCH  44  45
HETATM   45  C15 MK1 B 902      11.125  24.288   7.420  1.00 26.89    -0.057 A 
HETATM   46  C16 MK1 B 902      12.420  24.768   7.626  1.00 29.22     0.007 A 
HETATM   47  C17 MK1 B 902      12.666  25.758   8.565  1.00 29.22     0.001 A 
HETATM   48  C18 MK1 B 902      11.595  26.265   9.304  1.00 30.97     0.000 A 
HETATM   49  C19 MK1 B 902      10.294  25.792   9.096  1.00 29.25     0.001 A 
HETATM   50  C20 MK1 B 902      10.062  24.796   8.147  1.00 29.96     0.007 A 
ENDBRANCH  44  45
ENDBRANCH  28  44
ENDBRANCH  27  28
ENDBRANCH  24  27
ENDBRANCH  23  24
ENDBRANCH   4  23
TORSDOF 14
ENDMDL
MODEL 10
REMARK VINA RESULT:      -9.9      2.154     10.822
REMARK  14 active torsions:
REMARK  status: ('A' for Active; 'I' for Inactive)
REMARK    1  A    between atoms: N1_1  and  C31_43 
REMARK    2  A    between atoms: C2_3  and  C3_4 
REMARK       I    between atoms: C3_4  and  N2_6 
REMARK    3  A    between atoms: N2_6  and  C4_8 
REMARK    4  A    between atoms: N3_12  and  C10_15 
REMARK    5  A    between atoms: C10_15  and  C11_16 
REMARK    6  A    between atoms: C11_16  and  O2_17 
REMARK    7  A    between atoms: C11_16  and  C12_19 
REMARK    8  A    between atoms: C12_19  and  C13_20 
REMARK    9  A    between atoms: C13_20  and  C21_28 
REMARK   10  A    between atoms: C13_20  and  C14_21 
REMARK   11  A    between atoms: C14_21  and  C15_22 
REMARK       I    between atoms: C21_28  and  N4_30 
REMARK   12  A    between atoms: N4_30  and  C22_32 
REMARK   13  A    between atoms: C23_33  and  O4_34 
REMARK   14  A    between atoms: C31_43  and  C32_44 
ROOT
HETATM    1  N1  MK1 B 902      15.102  23.540   6.941  1.00 28.25     0.096 N 
HETATM    2  C1  MK1 B 902      15.218  22.528   5.857  1.00 30.30     0.307 C 
HETATM    3  C2  MK1 B 902      14.499  22.702   4.534  1.00 27.27     0.200 C 
HETATM    4  N3  MK1 B 902      13.064  22.806   4.978  1.00 28.91    -0.395 N 
HETATM    5  C8  MK1 B 902      12.744  23.595   6.194  1.00 26.24     0.148 C 
HETATM    6  C9  MK1 B 902      13.760  23.593   7.318  1.00 27.47     0.292 C 
ENDROOT
BRANCH   1   7
HETATM    7  C31 MK1 B 902      16.051  23.442   8.056  1.00 36.25     0.312 C 
BRANCH   7   8
HETATM    8  C32 MK1 B 902      16.351  22.099   8.734  1.00 42.75    -0.015 A 
HETATM    9  C36 MK1 B 902      15.454  21.644   9.676  1.00 44.71     0.011 A 
HETATM   10  C35 MK1 B 902      15.731  20.435  10.309  1.00 49.34     0.018 A 
HETATM   11  C34 MK1 B 902      16.892  19.727   9.983  1.00 50.60     0.087 A 
HETATM   12  N5  MK1 B 902      17.848  20.116   9.045  1.00 51.38    -0.375 N 
HETATM   13  C33 MK1 B 902      17.496  21.340   8.453  1.00 47.41     0.096 A 
HETATM   14  H5  MK1 B 902      18.689  19.584   8.821  1.00  0.00     0.164 HD
ENDBRANCH   7   8
ENDBRANCH   1   7
BRANCH   3  15
HETATM   15  C3  MK1 B 902      14.767  21.490   3.685  1.00 28.85     0.242 C 
HETATM   16  O1  MK1 B 902      14.581  21.529   2.475  1.00 29.59    -0.271 OA
HETATM   17  N2  MK1 B 902      15.190  20.406   4.305  1.00 22.29    -0.351 N 
HETATM   18  H2  MK1 B 902      15.238  20.486   5.321  1.00  0.00     0.163 HD
BRANCH  17  19
HETATM   19  C4  MK1 B 902      15.591  19.139   3.784  1.00 23.47     0.022 C 
HETATM   20  C7  MK1 B 902      14.959  18.806   2.503  1.00 22.75     0.037 C 
HETATM   21  C5  MK1 B 902      15.074  18.067   4.761  1.00 27.66     0.037 C 
HETATM   22  C6  MK1 B 902      16.962  19.022   3.620  1.00 21.71     0.037 C 
ENDBRANCH  17  19
ENDBRANCH   3  15
BRANCH   4  23
HETATM   23  C10 MK1 B 902      12.066  23.075   3.963  1.00 20.86     0.149 C 
BRANCH  23  24
HETATM   24  C11 MK1 B 902      11.493  24.492   4.009  1.00 21.68     0.136 C 
BRANCH  24  25
HETATM   25  O2  MK1 B 902      12.410  25.029   3.103  1.00 15.87    -0.394 OA
HETATM   26  H2  MK1 B 902      12.751  24.318   2.574  1.00  0.00     0.210 HD
ENDBRANCH  24  25
BRANCH  24  27
HETATM   27  C12 MK1 B 902      10.078  24.868   3.533  1.00 21.49     0.047 C 
BRANCH  27  28
HETATM   28  C13 MK1 B 902       9.024  25.369   4.531  1.00 26.89     0.084 C 
BRANCH  28  29
HETATM   29  C21 MK1 B 902       7.665  25.576   3.874  1.00 29.35     0.222 C 
HETATM   30  N4  MK1 B 902       6.616  25.447   4.682  1.00 31.19    -0.350 N 
HETATM   31  H4  MK1 B 902       6.739  24.999   5.591  1.00  0.00     0.163 HD
HETATM   32  O3  MK1 B 902       7.584  25.950   2.695  1.00 32.66    -0.273 OA
BRANCH  30  33
HETATM   33  C22 MK1 B 902       5.299  25.928   4.302  1.00 29.22     0.147 C 
HETATM   34  C30 MK1 B 902       4.246  24.894   3.821  1.00 31.86    -0.027 A 
HETATM   35  C29 MK1 B 902       4.325  23.766   3.068  1.00 27.70     0.010 A 
HETATM   36  C25 MK1 B 902       2.824  25.266   4.329  1.00 31.29    -0.047 A 
HETATM   37  C28 MK1 B 902       3.203  23.000   2.781  1.00 29.01     0.001 A 
HETATM   38  C27 MK1 B 902       1.927  23.338   3.257  1.00 28.00     0.001 A 
HETATM   39  C26 MK1 B 902       1.732  24.482   4.039  1.00 32.00     0.008 A 
HETATM   40  C24 MK1 B 902       3.113  26.515   5.124  1.00 32.05     0.073 C 
HETATM   41  C23 MK1 B 902       4.584  26.605   5.459  1.00 28.82     0.149 C 
BRANCH  41  42
HETATM   42  O4  MK1 B 902       4.935  25.983   6.686  1.00 28.32    -0.393 OA
HETATM   43  H4  MK1 B 902       5.626  26.472   7.117  1.00  0.00     0.210 HD
ENDBRANCH  41  42
ENDBRANCH  30  33
ENDBRANCH  28  29
BRANCH  28  44
HETATM   44  C14 MK1 B 902       9.449  26.679   5.218  1.00 28.67     0.052 C 
BRANCH  44  45
HETATM   45  C15 MK1 B 902       9.561  26.536   6.692  1.00 26.89    -0.057 A 
HETATM   46  C16 MK1 B 902      10.742  26.137   7.321  1.00 29.22     0.007 A 
HETATM   47  C17 MK1 B 902      10.791  25.982   8.699  1.00 29.22     0.001 A 
HETATM   48  C18 MK1 B 902       9.637  26.229   9.445  1.00 30.97     0.000 A 
HETATM   49  C19 MK1 B 902       8.453  26.637   8.818  1.00 29.25     0.001 A 
HETATM   50  C20 MK1 B 902       8.419  26.790   7.432  1.00 29.96     0.007 A 
ENDBRANCH  44  45
ENDBRANCH  28  44
ENDBRANCH  27  28
ENDBRANCH  24  27
ENDBRANCH  23  24
ENDBRANCH   4  23
TORSDOF 14
ENDMDL
MODEL 11
REMARK VINA RESULT:      -9.7      1.958     10.168
REMARK  14 active torsions:
REMARK  status: ('A' for Active; 'I' for Inactive)
REMARK    1  A    between atoms: N1_1  and  C31_43 
REMARK    2  A    between atoms: C2_3  and  C3_4 
REMARK       I    between atoms: C3_4  and  N2_6 
REMARK    3  A    between atoms: N2_6  and  C4_8 
REMARK    4  A    between atoms: N3_12  and  C10_15 
REMARK    5  A    between atoms: C10_15  and  C11_16 
REMARK    6  A    between atoms: C11_16  and  O2_17 
REMARK    7  A    between atoms: C11_16  and  C12_19 
REMARK    8  A    between atoms: C12_19  and  C13_20 
REMARK    9  A    between atoms: C13_20  and  C21_28 
REMARK   10  A    between atoms: C13_20  and  C14_21 
REMARK   11  A    between atoms: C14_21  and  C15_22 
REMARK       I    between atoms: C21_28  and  N4_30 
REMARK   12  A    between atoms: N4_30  and  C22_32 
REMARK   13  A    between atoms: C23_33  and  O4_34 
REMARK   14  A    between atoms: C31_43  and  C32_44 
ROOT
HETATM    1  N1  MK1 B 902      17.665  21.039   8.372  1.00 28.25     0.096 N 
HETATM    2  C1  MK1 B 902      17.453  20.147   7.201  1.00 30.30     0.307 C 
HETATM    3  C2  MK1 B 902      16.622  20.590   6.013  1.00 27.27     0.200 C 
HETATM    4  N3  MK1 B 902      15.300  20.895   6.663  1.00 28.91    -0.395 N 
HETATM    5  C8  MK1 B 902      15.288  21.591   7.974  1.00 26.24     0.148 C 
HETATM    6  C9  MK1 B 902      16.416  21.286   8.939  1.00 27.47     0.292 C 
ENDROOT
BRANCH   1   7
HETATM    7  C31 MK1 B 902      18.709  20.653   9.330  1.00 36.25     0.312 C 
BRANCH   7   8
HETATM    8  C32 MK1 B 902      18.616  19.348  10.129  1.00 42.75    -0.015 A 
HETATM    9  C36 MK1 B 902      18.928  19.397  11.471  1.00 44.71     0.011 A 
HETATM   10  C35 MK1 B 902      18.865  18.211  12.199  1.00 49.34     0.018 A 
HETATM   11  C34 MK1 B 902      18.497  17.022  11.562  1.00 50.60     0.087 A 
HETATM   12  N5  MK1 B 902      18.167  16.886  10.215  1.00 51.38    -0.375 N 
HETATM   13  C33 MK1 B 902      18.254  18.122   9.553  1.00 47.41     0.096 A 
HETATM   14  H5  MK1 B 902      17.900  16.008   9.769  1.00  0.00     0.164 HD
ENDBRANCH   7   8
ENDBRANCH   1   7
BRANCH   3  15
HETATM   15  C3  MK1 B 902      16.549  19.450   5.034  1.00 28.85     0.242 C 
HETATM   16  O1  MK1 B 902      16.971  18.342   5.341  1.00 29.59    -0.271 OA
HETATM   17  N2  MK1 B 902      16.029  19.710   3.850  1.00 22.29    -0.351 N 
HETATM   18  H2  MK1 B 902      15.778  20.687   3.698  1.00  0.00     0.163 HD
BRANCH  17  19
HETATM   19  C4  MK1 B 902      15.761  18.844   2.747  1.00 23.47     0.022 C 
HETATM   20  C7  MK1 B 902      16.972  18.321   2.105  1.00 22.75     0.037 C 
HETATM   21  C5  MK1 B 902      15.084  19.697   1.659  1.00 27.66     0.037 C 
HETATM   22  C6  MK1 B 902      14.960  17.763   3.080  1.00 21.71     0.037 C 
ENDBRANCH  17  19
ENDBRANCH   3  15
BRANCH   4  23
HETATM   23  C10 MK1 B 902      14.253  21.446   5.825  1.00 20.86     0.149 C 
BRANCH  23  24
HETATM   24  C11 MK1 B 902      14.636  22.748   5.120  1.00 21.68     0.136 C 
BRANCH  24  25
HETATM   25  O2  MK1 B 902      14.187  22.347   3.860  1.00 15.87    -0.394 OA
HETATM   26  H2  MK1 B 902      14.795  22.680   3.211  1.00  0.00     0.210 HD
ENDBRANCH  24  25
BRANCH  24  27
HETATM   27  C12 MK1 B 902      14.008  24.119   5.434  1.00 21.49     0.047 C 
BRANCH  27  28
HETATM   28  C13 MK1 B 902      12.940  24.257   6.528  1.00 26.89     0.084 C 
BRANCH  28  29
HETATM   29  C21 MK1 B 902      11.641  23.555   6.153  1.00 29.35     0.222 C 
HETATM   30  N4  MK1 B 902      11.076  23.970   5.022  1.00 31.19    -0.350 N 
HETATM   31  H4  MK1 B 902      11.378  24.851   4.608  1.00  0.00     0.163 HD
HETATM   32  O3  MK1 B 902      11.229  22.591   6.816  1.00 32.66    -0.273 OA
BRANCH  30  33
HETATM   33  C22 MK1 B 902      10.037  23.197   4.362  1.00 29.22     0.147 C 
HETATM   34  C30 MK1 B 902       8.816  23.952   3.776  1.00 31.86    -0.027 A 
HETATM   35  C29 MK1 B 902       8.098  25.028   4.192  1.00 27.70     0.010 A 
HETATM   36  C25 MK1 B 902       8.353  23.312   2.436  1.00 31.29    -0.047 A 
HETATM   37  C28 MK1 B 902       7.026  25.518   3.457  1.00 29.01     0.001 A 
HETATM   38  C27 MK1 B 902       6.627  24.941   2.243  1.00 28.00     0.001 A 
HETATM   39  C26 MK1 B 902       7.295  23.826   1.724  1.00 32.00     0.008 A 
HETATM   40  C24 MK1 B 902       9.360  22.200   2.278  1.00 32.05     0.073 C 
HETATM   41  C23 MK1 B 902      10.567  22.446   3.153  1.00 28.82     0.149 C 
BRANCH  41  42
HETATM   42  O4  MK1 B 902      11.594  23.195   2.520  1.00 28.32    -0.393 OA
HETATM   43  H4  MK1 B 902      11.769  23.991   3.008  1.00  0.00     0.210 HD
ENDBRANCH  41  42
ENDBRANCH  30  33
ENDBRANCH  28  29
BRANCH  28  44
HETATM   44  C14 MK1 B 902      12.634  25.727   6.861  1.00 28.67     0.052 C 
BRANCH  44  45
HETATM   45  C15 MK1 B 902      11.419  25.878   7.700  1.00 26.89    -0.057 A 
HETATM   46  C16 MK1 B 902      11.380  25.499   9.044  1.00 29.22     0.007 A 
HETATM   47  C17 MK1 B 902      10.211  25.624   9.780  1.00 29.22     0.001 A 
HETATM   48  C18 MK1 B 902       9.073  26.134   9.153  1.00 30.97     0.000 A 
HETATM   49  C19 MK1 B 902       9.109  26.524   7.808  1.00 29.25     0.001 A 
HETATM   50  C20 MK1 B 902      10.292  26.393   7.081  1.00 29.96     0.007 A 
ENDBRANCH  44  45
ENDBRANCH  28  44
ENDBRANCH  27  28
ENDBRANCH  24  27
ENDBRANCH  23  24
ENDBRANCH   4  23
TORSDOF 14
ENDMDL
MODEL 12
REMARK VINA RESULT:      -9.6      1.895     10.848
REMARK  14 active torsions:
REMARK  status: ('A' for Active; 'I' for Inactive)
REMARK    1  A    between atoms: N1_1  and  C31_43 
REMARK    2  A    between atoms: C2_3  and  C3_4 
REMARK       I    between atoms: C3_4  and  N2_6 
REMARK    3  A    between atoms: N2_6  and  C4_8 
REMARK    4  A    between atoms: N3_12  and  C10_15 
REMARK    5  A    between atoms: C10_15  and  C11_16 
REMARK    6  A    between atoms: C11_16  and  O2_17 
REMARK    7  A    between atoms: C11_16  and  C12_19 
REMARK    8  A    between atoms: C12_19  and  C13_20 
REMARK    9  A    between atoms: C13_20  and  C21_28 
REMARK   10  A    between atoms: C13_20  and  C14_21 
REMARK   11  A    between atoms: C14_21  and  C15_22 
REMARK       I    between atoms: C21_28  and  N4_30 
REMARK   12  A    between atoms: N4_30  and  C22_32 
REMARK   13  A    between atoms: C23_33  and  O4_34 
REMARK   14  A    between atoms: C31_43  and  C32_44 
ROOT
HETATM    1  N1  MK1 B 902      15.256  23.175   7.030  1.00 28.25     0.096 N 
HETATM    2  C1  MK1 B 902      15.485  22.012   6.132  1.00 30.30     0.307 C 
HETATM    3  C2  MK1 B 902      15.195  22.094   4.646  1.00 27.27     0.200 C 
HETATM    4  N3  MK1 B 902      13.735  22.458   4.639  1.00 28.91    -0.395 N 
HETATM    5  C8  MK1 B 902      13.238  23.450   5.626  1.00 26.24     0.148 C 
HETATM    6  C9  MK1 B 902      13.893  23.468   6.992  1.00 27.47     0.292 C 
ENDROOT
BRANCH   1   7
HETATM    7  C31 MK1 B 902      15.833  23.107   8.378  1.00 36.25     0.312 C 
BRANCH   7   8
HETATM    8  C32 MK1 B 902      16.601  21.870   8.856  1.00 42.75    -0.015 A 
HETATM    9  C36 MK1 B 902      15.900  20.915   9.562  1.00 44.71     0.011 A 
HETATM   10  C35 MK1 B 902      16.596  19.798  10.016  1.00 49.34     0.018 A 
HETATM   11  C34 MK1 B 902      17.964  19.675   9.754  1.00 50.60     0.087 A 
HETATM   12  N5  MK1 B 902      18.745  20.591   9.051  1.00 51.38    -0.375 N 
HETATM   13  C33 MK1 B 902      17.972  21.684   8.628  1.00 47.41     0.096 A 
HETATM   14  H5  MK1 B 902      19.743  20.482   8.870  1.00  0.00     0.164 HD
ENDBRANCH   7   8
ENDBRANCH   1   7
BRANCH   3  15
HETATM   15  C3  MK1 B 902      15.470  20.746   4.035  1.00 28.85     0.242 C 
HETATM   16  O1  MK1 B 902      14.894  20.404   3.010  1.00 29.59    -0.271 OA
HETATM   17  N2  MK1 B 902      16.334  19.971   4.659  1.00 22.29    -0.351 N 
HETATM   18  H2  MK1 B 902      16.691  20.348   5.538  1.00  0.00     0.163 HD
BRANCH  17  19
HETATM   19  C4  MK1 B 902      16.851  18.688   4.304  1.00 23.47     0.022 C 
HETATM   20  C7  MK1 B 902      15.867  17.607   4.423  1.00 22.75     0.037 C 
HETATM   21  C5  MK1 B 902      17.937  18.339   5.337  1.00 27.66     0.037 C 
HETATM   22  C6  MK1 B 902      17.373  18.643   3.021  1.00 21.71     0.037 C 
ENDBRANCH  17  19
ENDBRANCH   3  15
BRANCH   4  23
HETATM   23  C10 MK1 B 902      13.114  22.715   3.355  1.00 20.86     0.149 C 
BRANCH  23  24
HETATM   24  C11 MK1 B 902      11.882  23.619   3.426  1.00 21.68     0.136 C 
BRANCH  24  25
HETATM   25  O2  MK1 B 902      12.593  24.812   3.280  1.00 15.87    -0.394 OA
HETATM   26  H2  MK1 B 902      13.442  24.604   2.909  1.00  0.00     0.210 HD
ENDBRANCH  24  25
BRANCH  24  27
HETATM   27  C12 MK1 B 902      10.745  23.612   2.387  1.00 21.49     0.047 C 
BRANCH  27  28
HETATM   28  C13 MK1 B 902       9.338  24.095   2.767  1.00 26.89     0.084 C 
BRANCH  28  29
HETATM   29  C21 MK1 B 902       9.231  24.444   4.246  1.00 29.35     0.222 C 
HETATM   30  N4  MK1 B 902       9.088  25.738   4.518  1.00 31.19    -0.350 N 
HETATM   31  H4  MK1 B 902       9.292  26.425   3.792  1.00  0.00     0.163 HD
HETATM   32  O3  MK1 B 902       9.169  23.549   5.103  1.00 32.66    -0.273 OA
BRANCH  30  33
HETATM   33  C22 MK1 B 902       8.647  26.197   5.824  1.00 29.22     0.147 C 
HETATM   34  C30 MK1 B 902       9.699  26.313   6.958  1.00 31.86    -0.027 A 
HETATM   35  C29 MK1 B 902      10.777  25.565   7.309  1.00 27.70     0.010 A 
HETATM   36  C25 MK1 B 902       9.424  27.557   7.851  1.00 31.29    -0.047 A 
HETATM   37  C28 MK1 B 902      11.577  25.900   8.394  1.00 29.01     0.001 A 
HETATM   38  C27 MK1 B 902      11.326  27.032   9.184  1.00 28.00     0.001 A 
HETATM   39  C26 MK1 B 902      10.239  27.871   8.913  1.00 32.00     0.008 A 
HETATM   40  C24 MK1 B 902       8.210  28.143   7.173  1.00 32.05     0.073 C 
HETATM   41  C23 MK1 B 902       8.071  27.602   5.769  1.00 28.82     0.149 C 
BRANCH  41  42
HETATM   42  O4  MK1 B 902       8.746  28.373   4.785  1.00 28.32    -0.393 OA
HETATM   43  H4  MK1 B 902       9.443  27.862   4.389  1.00  0.00     0.210 HD
ENDBRANCH  41  42
ENDBRANCH  30  33
ENDBRANCH  28  29
BRANCH  28  44
HETATM   44  C14 MK1 B 902       8.254  23.060   2.420  1.00 28.67     0.052 C 
BRANCH  44  45
HETATM   45  C15 MK1 B 902       6.893  23.652   2.387  1.00 26.89    -0.057 A 
HETATM   46  C16 MK1 B 902       5.934  23.390   3.368  1.00 29.22     0.007 A 
HETATM   47  C17 MK1 B 902       4.663  23.937   3.278  1.00 29.22     0.001 A 
HETATM   48  C18 MK1 B 902       4.358  24.753   2.186  1.00 30.97     0.000 A 
HETATM   49  C19 MK1 B 902       5.318  25.024   1.204  1.00 29.25     0.001 A 
HETATM   50  C20 MK1 B 902       6.593  24.468   1.310  1.00 29.96     0.007 A 
ENDBRANCH  44  45
ENDBRANCH  28  44
ENDBRANCH  27  28
ENDBRANCH  24  27
ENDBRANCH  23  24
ENDBRANCH   4  23
TORSDOF 14
ENDMDL
MODEL 13
REMARK VINA RESULT:      -9.6      2.252     10.309
REMARK  14 active torsions:
REMARK  status: ('A' for Active; 'I' for Inactive)
REMARK    1  A    between atoms: N1_1  and  C31_43 
REMARK    2  A    between atoms: C2_3  and  C3_4 
REMARK       I    between atoms: C3_4  and  N2_6 
REMARK    3  A    between atoms: N2_6  and  C4_8 
REMARK    4  A    between atoms: N3_12  and  C10_15 
REMARK    5  A    between atoms: C10_15  and  C11_16 
REMARK    6  A    between atoms: C11_16  and  O2_17 
REMARK    7  A    between atoms: C11_16  and  C12_19 
REMARK    8  A    between atoms: C12_19  and  C13_20 
REMARK    9  A    between atoms: C13_20  and  C21_28 
REMARK   10  A    between atoms: C13_20  and  C14_21 
REMARK   11  A    between atoms: C14_21  and  C15_22 
REMARK       I    between atoms: C21_28  and  N4_30 
REMARK   12  A    between atoms: N4_30  and  C22_32 
REMARK   13  A    between atoms: C23_33  and  O4_34 
REMARK   14  A    between atoms: C31_43  and  C32_44 
ROOT
HETATM    1  N1  MK1 B 902      17.404  20.216   9.508  1.00 28.25     0.096 N 
HETATM    2  C1  MK1 B 902      17.137  19.832   8.096  1.00 30.30     0.307 C 
HETATM    3  C2  MK1 B 902      16.478  20.795   7.129  1.00 27.27     0.200 C 
HETATM    4  N3  MK1 B 902      15.177  21.088   7.828  1.00 28.91    -0.395 N 
HETATM    5  C8  MK1 B 902      15.182  21.282   9.300  1.00 26.24     0.148 C 
HETATM    6  C9  MK1 B 902      16.172  20.471  10.110  1.00 27.47     0.292 C 
ENDROOT
BRANCH   1   7
HETATM    7  C31 MK1 B 902      18.299  19.348  10.283  1.00 36.25     0.312 C 
BRANCH   7   8
HETATM    8  C32 MK1 B 902      18.076  17.833  10.355  1.00 42.75    -0.015 A 
HETATM    9  C36 MK1 B 902      18.907  17.028   9.606  1.00 44.71     0.011 A 
HETATM   10  C35 MK1 B 902      18.697  15.652   9.652  1.00 49.34     0.018 A 
HETATM   11  C34 MK1 B 902      17.666  15.130  10.439  1.00 50.60     0.087 A 
HETATM   12  N5  MK1 B 902      16.784  15.871  11.224  1.00 51.38    -0.375 N 
HETATM   13  C33 MK1 B 902      17.061  17.244  11.124  1.00 47.41     0.096 A 
HETATM   14  H5  MK1 B 902      16.038  15.471  11.793  1.00  0.00     0.164 HD
ENDBRANCH   7   8
ENDBRANCH   1   7
BRANCH   3  15
HETATM   15  C3  MK1 B 902      16.293  20.092   5.811  1.00 28.85     0.242 C 
HETATM   16  O1  MK1 B 902      15.767  20.670   4.870  1.00 29.59    -0.271 OA
HETATM   17  N2  MK1 B 902      16.709  18.843   5.737  1.00 22.29    -0.351 N 
HETATM   18  H2  MK1 B 902      17.067  18.457   6.612  1.00  0.00     0.163 HD
BRANCH  17  19
HETATM   19  C4  MK1 B 902      16.739  17.942   4.629  1.00 23.47     0.022 C 
HETATM   20  C7  MK1 B 902      17.165  18.571   3.375  1.00 22.75     0.037 C 
HETATM   21  C5  MK1 B 902      15.287  17.503   4.368  1.00 27.66     0.037 C 
HETATM   22  C6  MK1 B 902      17.547  16.837   4.842  1.00 21.71     0.037 C 
ENDBRANCH  17  19
ENDBRANCH   3  15
BRANCH   4  23
HETATM   23  C10 MK1 B 902      14.297  22.068   7.224  1.00 20.86     0.149 C 
BRANCH  23  24
HETATM   24  C11 MK1 B 902      14.734  23.518   7.440  1.00 21.68     0.136 C 
BRANCH  24  25
HETATM   25  O2  MK1 B 902      14.492  23.919   6.124  1.00 15.87    -0.394 OA
HETATM   26  H2  MK1 B 902      14.688  23.186   5.553  1.00  0.00     0.210 HD
ENDBRANCH  24  25
BRANCH  24  27
HETATM   27  C12 MK1 B 902      14.016  24.506   8.378  1.00 21.49     0.047 C 
BRANCH  27  28
HETATM   28  C13 MK1 B 902      12.580  24.961   8.083  1.00 26.89     0.084 C 
BRANCH  28  29
HETATM   29  C21 MK1 B 902      12.367  25.262   6.604  1.00 29.35     0.222 C 
HETATM   30  N4  MK1 B 902      11.395  24.571   6.016  1.00 31.19    -0.350 N 
HETATM   31  H4  MK1 B 902      11.021  23.743   6.480  1.00  0.00     0.163 HD
HETATM   32  O3  MK1 B 902      12.995  26.176   6.049  1.00 32.66    -0.273 OA
BRANCH  30  33
HETATM   33  C22 MK1 B 902      10.852  24.966   4.727  1.00 29.22     0.147 C 
HETATM   34  C30 MK1 B 902      10.286  23.862   3.795  1.00 31.86    -0.027 A 
HETATM   35  C29 MK1 B 902      10.667  22.587   3.523  1.00 27.70     0.010 A 
HETATM   36  C25 MK1 B 902       9.023  24.363   3.038  1.00 31.29    -0.047 A 
HETATM   37  C28 MK1 B 902       9.965  21.790   2.629  1.00 29.01     0.001 A 
HETATM   38  C27 MK1 B 902       8.818  22.248   1.963  1.00 28.00     0.001 A 
HETATM   39  C26 MK1 B 902       8.340  23.547   2.166  1.00 32.00     0.008 A 
HETATM   40  C24 MK1 B 902       8.884  25.761   3.588  1.00 32.05     0.073 C 
HETATM   41  C23 MK1 B 902       9.669  25.908   4.872  1.00 28.82     0.149 C 
BRANCH  41  42
HETATM   42  O4  MK1 B 902       8.926  25.589   6.040  1.00 28.32    -0.393 OA
HETATM   43  H4  MK1 B 902       8.433  26.347   6.333  1.00  0.00     0.210 HD
ENDBRANCH  41  42
ENDBRANCH  30  33
ENDBRANCH  28  29
BRANCH  28  44
HETATM   44  C14 MK1 B 902      12.180  26.199   8.905  1.00 28.67     0.052 C 
BRANCH  44  45
HETATM   45  C15 MK1 B 902      10.710  26.401   8.948  1.00 26.89    -0.057 A 
HETATM   46  C16 MK1 B 902       9.818  25.376   9.267  1.00 29.22     0.007 A 
HETATM   47  C17 MK1 B 902       8.450  25.601   9.260  1.00 29.22     0.001 A 
HETATM   48  C18 MK1 B 902       7.980  26.873   8.925  1.00 30.97     0.000 A 
HETATM   49  C19 MK1 B 902       8.871  27.906   8.612  1.00 29.25     0.001 A 
HETATM   50  C20 MK1 B 902      10.244  27.664   8.625  1.00 29.96     0.007 A 
ENDBRANCH  44  45
ENDBRANCH  28  44
ENDBRANCH  27  28
ENDBRANCH  24  27
ENDBRANCH  23  24
ENDBRANCH   4  23
TORSDOF 14
ENDMDL
MODEL 14
REMARK VINA RESULT:      -9.3      2.306      3.989
REMARK  14 active torsions:
REMARK  status: ('A' for Active; 'I' for Inactive)
REMARK    1  A    between atoms: N1_1  and  C31_43 
REMARK    2  A    between atoms: C2_3  and  C3_4 
REMARK       I    between atoms: C3_4  and  N2_6 
REMARK    3  A    between atoms: N2_6  and  C4_8 
REMARK    4  A    between atoms: N3_12  and  C10_15 
REMARK    5  A    between atoms: C10_15  and  C11_16 
REMARK    6  A    between atoms: C11_16  and  O2_17 
REMARK    7  A    between atoms: C11_16  and  C12_19 
REMARK    8  A    between atoms: C12_19  and  C13_20 
REMARK    9  A    between atoms: C13_20  and  C21_28 
REMARK   10  A    between atoms: C13_20  and  C14_21 
REMARK   11  A    between atoms: C14_21  and  C15_22 
REMARK       I    between atoms: C21_28  and  N4_30 
REMARK   12  A    between atoms: N4_30  and  C22_32 
REMARK   13  A    between atoms: C23_33  and  O4_34 
REMARK   14  A    between atoms: C31_43  and  C32_44 
ROOT
HETATM    1  N1  MK1 B 902       7.355  27.762   6.940  1.00 28.25     0.096 N 
HETATM    2  C1  MK1 B 902       7.775  27.021   5.720  1.00 30.30     0.307 C 
HETATM    3  C2  MK1 B 902       8.745  25.859   5.799  1.00 27.27     0.200 C 
HETATM    4  N3  MK1 B 902       9.945  26.505   6.437  1.00 28.91    -0.395 N 
HETATM    5  C8  MK1 B 902       9.736  27.472   7.544  1.00 26.24     0.148 C 
HETATM    6  C9  MK1 B 902       8.497  28.343   7.488  1.00 27.47     0.292 C 
ENDROOT
BRANCH   1   7
HETATM    7  C31 MK1 B 902       6.205  28.665   6.814  1.00 36.25     0.312 C 
BRANCH   7   8
HETATM    8  C32 MK1 B 902       4.787  28.209   7.178  1.00 42.75    -0.015 A 
HETATM    9  C36 MK1 B 902       4.400  26.947   6.783  1.00 44.71     0.011 A 
HETATM   10  C35 MK1 B 902       3.107  26.534   7.094  1.00 49.34     0.018 A 
HETATM   11  C34 MK1 B 902       2.247  27.395   7.782  1.00 50.60     0.087 A 
HETATM   12  N5  MK1 B 902       2.558  28.683   8.216  1.00 51.38    -0.375 N 
HETATM   13  C33 MK1 B 902       3.875  29.022   7.867  1.00 47.41     0.096 A 
HETATM   14  H5  MK1 B 902       1.915  29.296   8.719  1.00  0.00     0.164 HD
ENDBRANCH   7   8
ENDBRANCH   1   7
BRANCH   3  15
HETATM   15  C3  MK1 B 902       9.013  25.369   4.401  1.00 28.85     0.242 C 
HETATM   16  O1  MK1 B 902       9.257  26.165   3.504  1.00 29.59    -0.271 OA
HETATM   17  N2  MK1 B 902       8.955  24.067   4.202  1.00 22.29    -0.351 N 
HETATM   18  H2  MK1 B 902       8.675  23.521   5.018  1.00  0.00     0.163 HD
BRANCH  17  19
HETATM   19  C4  MK1 B 902       9.222  23.298   3.029  1.00 23.47     0.022 C 
HETATM   20  C7  MK1 B 902       9.687  21.937   3.314  1.00 22.75     0.037 C 
HETATM   21  C5  MK1 B 902      10.407  23.970   2.311  1.00 27.66     0.037 C 
HETATM   22  C6  MK1 B 902       8.134  23.202   2.177  1.00 21.71     0.037 C 
ENDBRANCH  17  19
ENDBRANCH   3  15
BRANCH   4  23
HETATM   23  C10 MK1 B 902      11.072  25.653   6.759  1.00 20.86     0.149 C 
BRANCH  23  24
HETATM   24  C11 MK1 B 902      11.943  25.286   5.556  1.00 21.68     0.136 C 
BRANCH  24  25
HETATM   25  O2  MK1 B 902      13.061  26.003   5.987  1.00 15.87    -0.394 OA
HETATM   26  H2  MK1 B 902      13.758  25.868   5.355  1.00  0.00     0.210 HD
ENDBRANCH  24  25
BRANCH  24  27
HETATM   27  C12 MK1 B 902      12.397  23.853   5.223  1.00 21.49     0.047 C 
BRANCH  27  28
HETATM   28  C13 MK1 B 902      13.606  23.230   5.935  1.00 26.89     0.084 C 
BRANCH  28  29
HETATM   29  C21 MK1 B 902      13.712  21.732   5.679  1.00 29.35     0.222 C 
HETATM   30  N4  MK1 B 902      14.840  21.332   5.097  1.00 31.19    -0.350 N 
HETATM   31  H4  MK1 B 902      15.441  22.023   4.648  1.00  0.00     0.163 HD
HETATM   32  O3  MK1 B 902      12.841  20.956   6.100  1.00 32.66    -0.273 OA
BRANCH  30  33
HETATM   33  C22 MK1 B 902      15.235  19.934   5.085  1.00 29.22     0.147 C 
HETATM   34  C30 MK1 B 902      15.695  19.309   3.742  1.00 31.86    -0.027 A 
HETATM   35  C29 MK1 B 902      15.287  19.462   2.455  1.00 27.70     0.010 A 
HETATM   36  C25 MK1 B 902      16.866  18.309   3.962  1.00 31.29    -0.047 A 
HETATM   37  C28 MK1 B 902      15.887  18.769   1.412  1.00 29.01     0.001 A 
HETATM   38  C27 MK1 B 902      16.952  17.880   1.621  1.00 28.00     0.001 A 
HETATM   39  C26 MK1 B 902      17.448  17.644   2.908  1.00 32.00     0.008 A 
HETATM   40  C24 MK1 B 902      17.064  18.410   5.454  1.00 32.05     0.073 C 
HETATM   41  C23 MK1 B 902      16.427  19.671   5.991  1.00 28.82     0.149 C 
BRANCH  41  42
HETATM   42  O4  MK1 B 902      17.294  20.796   6.001  1.00 28.32    -0.393 OA
HETATM   43  H4  MK1 B 902      17.729  20.883   5.160  1.00  0.00     0.210 HD
ENDBRANCH  41  42
ENDBRANCH  30  33
ENDBRANCH  28  29
BRANCH  28  44
HETATM   44  C14 MK1 B 902      13.576  23.474   7.454  1.00 28.67     0.052 C 
BRANCH  44  45
HETATM   45  C15 MK1 B 902      14.777  22.933   8.139  1.00 26.89    -0.057 A 
HETATM   46  C16 MK1 B 902      16.050  23.479   7.970  1.00 29.22     0.007 A 
HETATM   47  C17 MK1 B 902      17.150  22.917   8.602  1.00 29.22     0.001 A 
HETATM   48  C18 MK1 B 902      16.960  21.794   9.409  1.00 30.97     0.000 A 
HETATM   49  C19 MK1 B 902      15.683  21.248   9.589  1.00 29.25     0.001 A 
HETATM   50  C20 MK1 B 902      14.587  21.824   8.947  1.00 29.96     0.007 A 
ENDBRANCH  44  45
ENDBRANCH  28  44
ENDBRANCH  27  28
ENDBRANCH  24  27
ENDBRANCH  23  24
ENDBRANCH   4  23
TORSDOF 14
ENDMDL
MODEL 15
REMARK VINA RESULT:      -9.2      2.394     10.754
REMARK  14 active torsions:
REMARK  status: ('A' for Active; 'I' for Inactive)
REMARK    1  A    between atoms: N1_1  and  C31_43 
REMARK    2  A    between atoms: C2_3  and  C3_4 
REMARK       I    between atoms: C3_4  and  N2_6 
REMARK    3  A    between atoms: N2_6  and  C4_8 
REMARK    4  A    between atoms: N3_12  and  C10_15 
REMARK    5  A    between atoms: C10_15  and  C11_16 
REMARK    6  A    between atoms: C11_16  and  O2_17 
REMARK    7  A    between atoms: C11_16  and  C12_19 
REMARK    8  A    between atoms: C12_19  and  C13_20 
REMARK    9  A    between atoms: C13_20  and  C21_28 
REMARK   10  A    between atoms: C13_20  and  C14_21 
REMARK   11  A    between atoms: C14_21  and  C15_22 
REMARK       I    between atoms: C21_28  and  N4_30 
REMARK   12  A    between atoms: N4_30  and  C22_32 
REMARK   13  A    between atoms: C23_33  and  O4_34 
REMARK   14  A    between atoms: C31_43  and  C32_44 
ROOT
HETATM    1  N1  MK1 B 902      17.060  19.820   9.821  1.00 28.25     0.096 N 
HETATM    2  C1  MK1 B 902      16.846  19.568   8.371  1.00 30.30     0.307 C 
HETATM    3  C2  MK1 B 902      16.990  20.678   7.348  1.00 27.27     0.200 C 
HETATM    4  N3  MK1 B 902      15.981  21.679   7.841  1.00 28.91    -0.395 N 
HETATM    5  C8  MK1 B 902      15.865  21.922   9.301  1.00 26.24     0.148 C 
HETATM    6  C9  MK1 B 902      16.100  20.747  10.228  1.00 27.47     0.292 C 
ENDROOT
BRANCH   1   7
HETATM    7  C31 MK1 B 902      17.191  18.648  10.695  1.00 36.25     0.312 C 
BRANCH   7   8
HETATM    8  C32 MK1 B 902      18.538  18.261  11.316  1.00 42.75    -0.015 A 
HETATM    9  C36 MK1 B 902      19.040  19.071  12.312  1.00 44.71     0.011 A 
HETATM   10  C35 MK1 B 902      20.273  18.736  12.866  1.00 49.34     0.018 A 
HETATM   11  C34 MK1 B 902      20.961  17.610  12.405  1.00 50.60     0.087 A 
HETATM   12  N5  MK1 B 902      20.526  16.741  11.406  1.00 51.38    -0.375 N 
HETATM   13  C33 MK1 B 902      19.279  17.145  10.901  1.00 47.41     0.096 A 
HETATM   14  H5  MK1 B 902      21.043  15.922  11.084  1.00  0.00     0.164 HD
ENDBRANCH   7   8
ENDBRANCH   1   7
BRANCH   3  15
HETATM   15  C3  MK1 B 902      16.652  20.119   5.992  1.00 28.85     0.242 C 
HETATM   16  O1  MK1 B 902      16.026  20.793   5.184  1.00 29.59    -0.271 OA
HETATM   17  N2  MK1 B 902      17.048  18.888   5.737  1.00 22.29    -0.351 N 
HETATM   18  H2  MK1 B 902      17.500  18.412   6.519  1.00  0.00     0.163 HD
BRANCH  17  19
HETATM   19  C4  MK1 B 902      16.945  18.112   4.542  1.00 23.47     0.022 C 
HETATM   20  C7  MK1 B 902      15.590  17.618   4.279  1.00 22.75     0.037 C 
HETATM   21  C5  MK1 B 902      17.785  16.840   4.759  1.00 27.66     0.037 C 
HETATM   22  C6  MK1 B 902      17.375  18.788   3.411  1.00 21.71     0.037 C 
ENDBRANCH  17  19
ENDBRANCH   3  15
BRANCH   4  23
HETATM   23  C10 MK1 B 902      15.898  22.946   7.143  1.00 20.86     0.149 C 
BRANCH  23  24
HETATM   24  C11 MK1 B 902      14.474  23.486   6.992  1.00 21.68     0.136 C 
BRANCH  24  25
HETATM   25  O2  MK1 B 902      13.879  22.231   6.847  1.00 15.87    -0.394 OA
HETATM   26  H2  MK1 B 902      13.227  22.293   6.159  1.00  0.00     0.210 HD
ENDBRANCH  24  25
BRANCH  24  27
HETATM   27  C12 MK1 B 902      13.718  24.248   8.095  1.00 21.49     0.047 C 
BRANCH  27  28
HETATM   28  C13 MK1 B 902      12.249  24.650   7.901  1.00 26.89     0.084 C 
BRANCH  28  29
HETATM   29  C21 MK1 B 902      11.845  24.653   6.431  1.00 29.35     0.222 C 
HETATM   30  N4  MK1 B 902      11.201  23.566   6.015  1.00 31.19    -0.350 N 
HETATM   31  H4  MK1 B 902      11.220  22.725   6.590  1.00  0.00     0.163 HD
HETATM   32  O3  MK1 B 902      12.019  25.662   5.731  1.00 32.66    -0.273 OA
BRANCH  30  33
HETATM   33  C22 MK1 B 902      10.470  23.550   4.759  1.00 29.22     0.147 C 
HETATM   34  C30 MK1 B 902       9.706  24.831   4.333  1.00 31.86    -0.027 A 
HETATM   35  C29 MK1 B 902       8.997  25.765   5.020  1.00 27.70     0.010 A 
HETATM   36  C25 MK1 B 902       9.798  25.052   2.796  1.00 31.29    -0.047 A 
HETATM   37  C28 MK1 B 902       8.403  26.845   4.381  1.00 29.01     0.001 A 
HETATM   38  C27 MK1 B 902       8.505  27.041   2.996  1.00 28.00     0.001 A 
HETATM   39  C26 MK1 B 902       9.208  26.137   2.192  1.00 32.00     0.008 A 
HETATM   40  C24 MK1 B 902      10.650  23.879   2.381  1.00 32.05     0.073 C 
HETATM   41  C23 MK1 B 902      11.384  23.305   3.571  1.00 28.82     0.149 C 
BRANCH  41  42
HETATM   42  O4  MK1 B 902      12.657  23.893   3.801  1.00 28.32    -0.393 OA
HETATM   43  H4  MK1 B 902      12.872  23.859   4.726  1.00  0.00     0.210 HD
ENDBRANCH  41  42
ENDBRANCH  30  33
ENDBRANCH  28  29
BRANCH  28  44
HETATM   44  C14 MK1 B 902      11.938  26.030   8.505  1.00 28.67     0.052 C 
BRANCH  44  45
HETATM   45  C15 MK1 B 902      10.480  26.306   8.572  1.00 26.89    -0.057 A 
HETATM   46  C16 MK1 B 902       9.548  25.338   8.951  1.00 29.22     0.007 A 
HETATM   47  C17 MK1 B 902       8.192  25.629   8.964  1.00 29.22     0.001 A 
HETATM   48  C18 MK1 B 902       7.776  26.907   8.589  1.00 30.97     0.000 A 
HETATM   49  C19 MK1 B 902       8.707  27.884   8.215  1.00 29.25     0.001 A 
HETATM   50  C20 MK1 B 902      10.068  27.576   8.208  1.00 29.96     0.007 A 
ENDBRANCH  44  45
ENDBRANCH  28  44
ENDBRANCH  27  28
ENDBRANCH  24  27
ENDBRANCH  23  24
ENDBRANCH   4  23
TORSDOF 14
ENDMDL
MODEL 16
REMARK VINA RESULT:      -9.2      4.239      8.138
REMARK  14 active torsions:
REMARK  status: ('A' for Active; 'I' for Inactive)
REMARK    1  A    between atoms: N1_1  and  C31_43 
REMARK    2  A    between atoms: C2_3  and  C3_4 
REMARK       I    between atoms: C3_4  and  N2_6 
REMARK    3  A    between atoms: N2_6  and  C4_8 
REMARK    4  A    between atoms: N3_12  and  C10_15 
REMARK    5  A    between atoms: C10_15  and  C11_16 
REMARK    6  A    between atoms: C11_16  and  O2_17 
REMARK    7  A    between atoms: C11_16  and  C12_19 
REMARK    8  A    between atoms: C12_19  and  C13_20 
REMARK    9  A    between atoms: C13_20  and  C21_28 
REMARK   10  A    between atoms: C13_20  and  C14_21 
REMARK   11  A    between atoms: C14_21  and  C15_22 
REMARK       I    between atoms: C21_28  and  N4_30 
REMARK   12  A    between atoms: N4_30  and  C22_32 
REMARK   13  A    between atoms: C23_33  and  O4_34 
REMARK   14  A    between atoms: C31_43  and  C32_44 
ROOT
HETATM    1  N1  MK1 B 902      14.921  22.645   8.009  1.00 28.25     0.096 N 
HETATM    2  C1  MK1 B 902      15.354  21.707   6.939  1.00 30.30     0.307 C 
HETATM    3  C2  MK1 B 902      16.272  20.538   7.240  1.00 27.27     0.200 C 
HETATM    4  N3  MK1 B 902      17.473  21.235   7.819  1.00 28.91    -0.395 N 
HETATM    5  C8  MK1 B 902      17.264  22.371   8.751  1.00 26.24     0.148 C 
HETATM    6  C9  MK1 B 902      16.066  23.266   8.508  1.00 27.47     0.292 C 
ENDROOT
BRANCH   1   7
HETATM    7  C31 MK1 B 902      13.815  23.558   7.696  1.00 36.25     0.312 C 
BRANCH   7   8
HETATM    8  C32 MK1 B 902      13.076  23.486   6.354  1.00 42.75    -0.015 A 
HETATM    9  C36 MK1 B 902      11.979  22.654   6.272  1.00 44.71     0.011 A 
HETATM   10  C35 MK1 B 902      11.316  22.569   5.050  1.00 49.34     0.018 A 
HETATM   11  C34 MK1 B 902      11.771  23.312   3.957  1.00 50.60     0.087 A 
HETATM   12  N5  MK1 B 902      12.868  24.172   3.955  1.00 51.38    -0.375 N 
HETATM   13  C33 MK1 B 902      13.480  24.203   5.219  1.00 47.41     0.096 A 
HETATM   14  H5  MK1 B 902      13.184  24.707   3.145  1.00  0.00     0.164 HD
ENDBRANCH   7   8
ENDBRANCH   1   7
BRANCH   3  15
HETATM   15  C3  MK1 B 902      16.569  19.825   5.949  1.00 28.85     0.242 C 
HETATM   16  O1  MK1 B 902      17.584  20.089   5.316  1.00 29.59    -0.271 OA
HETATM   17  N2  MK1 B 902      15.688  18.933   5.541  1.00 22.29    -0.351 N 
HETATM   18  H2  MK1 B 902      14.854  18.858   6.124  1.00  0.00     0.163 HD
BRANCH  17  19
HETATM   19  C4  MK1 B 902      15.713  18.055   4.415  1.00 23.47     0.022 C 
HETATM   20  C7  MK1 B 902      17.024  17.440   4.182  1.00 22.75     0.037 C 
HETATM   21  C5  MK1 B 902      15.463  18.920   3.166  1.00 27.66     0.037 C 
HETATM   22  C6  MK1 B 902      14.778  17.036   4.492  1.00 21.71     0.037 C 
ENDBRANCH  17  19
ENDBRANCH   3  15
BRANCH   4  23
HETATM   23  C10 MK1 B 902      18.552  20.406   8.318  1.00 20.86     0.149 C 
BRANCH  23  24
HETATM   24  C11 MK1 B 902      18.091  19.227   9.176  1.00 21.68     0.136 C 
BRANCH  24  25
HETATM   25  O2  MK1 B 902      18.604  18.244   8.328  1.00 15.87    -0.394 OA
HETATM   26  H2  MK1 B 902      18.161  18.318   7.491  1.00  0.00     0.210 HD
ENDBRANCH  24  25
BRANCH  24  27
HETATM   27  C12 MK1 B 902      18.604  18.942  10.600  1.00 21.49     0.047 C 
BRANCH  27  28
HETATM   28  C13 MK1 B 902      18.470  17.540  11.212  1.00 26.89     0.084 C 
BRANCH  28  29
HETATM   29  C21 MK1 B 902      19.496  16.567  10.645  1.00 29.35     0.222 C 
HETATM   30  N4  MK1 B 902      18.993  15.549   9.951  1.00 31.19    -0.350 N 
HETATM   31  H4  MK1 B 902      17.999  15.335  10.030  1.00  0.00     0.163 HD
HETATM   32  O3  MK1 B 902      20.710  16.800  10.745  1.00 32.66    -0.273 OA
BRANCH  30  33
HETATM   33  C22 MK1 B 902      19.827  14.735   9.083  1.00 29.22     0.147 C 
HETATM   34  C30 MK1 B 902      19.687  13.192   9.160  1.00 31.86    -0.027 A 
HETATM   35  C29 MK1 B 902      19.478  12.326  10.186  1.00 27.70     0.010 A 
HETATM   36  C25 MK1 B 902      19.819  12.547   7.751  1.00 31.29    -0.047 A 
HETATM   37  C28 MK1 B 902      19.384  10.957   9.977  1.00 29.01     0.001 A 
HETATM   38  C27 MK1 B 902      19.491  10.387   8.699  1.00 28.00     0.001 A 
HETATM   39  C26 MK1 B 902      19.711  11.188   7.573  1.00 32.00     0.008 A 
HETATM   40  C24 MK1 B 902      20.010  13.768   6.885  1.00 32.05     0.073 C 
HETATM   41  C23 MK1 B 902      19.560  15.013   7.613  1.00 28.82     0.149 C 
BRANCH  41  42
HETATM   42  O4  MK1 B 902      18.190  15.333   7.414  1.00 28.32    -0.393 OA
HETATM   43  H4  MK1 B 902      18.048  15.631   6.523  1.00  0.00     0.210 HD
ENDBRANCH  41  42
ENDBRANCH  30  33
ENDBRANCH  28  29
BRANCH  28  44
HETATM   44  C14 MK1 B 902      17.062  16.950  11.016  1.00 28.67     0.052 C 
BRANCH  44  45
HETATM   45  C15 MK1 B 902      16.557  16.269  12.234  1.00 26.89    -0.057 A 
HETATM   46  C16 MK1 B 902      17.398  15.860  13.271  1.00 29.22     0.007 A 
HETATM   47  C17 MK1 B 902      16.886  15.193  14.374  1.00 29.22     0.001 A 
HETATM   48  C18 MK1 B 902      15.515  14.936  14.428  1.00 30.97     0.000 A 
HETATM   49  C19 MK1 B 902      14.667  15.352  13.395  1.00 29.25     0.001 A 
HETATM   50  C20 MK1 B 902      15.196  16.022  12.292  1.00 29.96     0.007 A 
ENDBRANCH  44  45
ENDBRANCH  28  44
ENDBRANCH  27  28
ENDBRANCH  24  27
ENDBRANCH  23  24
ENDBRANCH   4  23
TORSDOF 14
ENDMDL
MODEL 17
REMARK VINA RESULT:      -8.8      3.993     11.559
REMARK  14 active torsions:
REMARK  status: ('A' for Active; 'I' for Inactive)
REMARK    1  A    between atoms: N1_1  and  C31_43 
REMARK    2  A    between atoms: C2_3  and  C3_4 
REMARK       I    between atoms: C3_4  and  N2_6 
REMARK    3  A    between atoms: N2_6  and  C4_8 
REMARK    4  A    between atoms: N3_12  and  C10_15 
REMARK    5  A    between atoms: C10_15  and  C11_16 
REMARK    6  A    between atoms: C11_16  and  O2_17 
REMARK    7  A    between atoms: C11_16  and  C12_19 
REMARK    8  A    between atoms: C12_19  and  C13_20 
REMARK    9  A    between atoms: C13_20  and  C21_28 
REMARK   10  A    between atoms: C13_20  and  C14_21 
REMARK   11  A    between atoms: C14_21  and  C15_22 
REMARK       I    between atoms: C21_28  and  N4_30 
REMARK   12  A    between atoms: N4_30  and  C22_32 
REMARK   13  A    between atoms: C23_33  and  O4_34 
REMARK   14  A    between atoms: C31_43  and  C32_44 
ROOT
HETATM    1  N1  MK1 B 902      12.404  25.335   7.477  1.00 28.25     0.096 N 
HETATM    2  C1  MK1 B 902      11.397  25.164   6.395  1.00 30.30     0.307 C 
HETATM    3  C2  MK1 B 902      10.498  26.307   5.967  1.00 27.27     0.200 C 
HETATM    4  N3  MK1 B 902       9.801  26.645   7.258  1.00 28.91    -0.395 N 
HETATM    5  C8  MK1 B 902      10.585  26.649   8.518  1.00 26.24     0.148 C 
HETATM    6  C9  MK1 B 902      11.708  25.640   8.646  1.00 27.47     0.292 C 
ENDROOT
BRANCH   1   7
HETATM    7  C31 MK1 B 902      13.419  24.284   7.622  1.00 36.25     0.312 C 
BRANCH   7   8
HETATM    8  C32 MK1 B 902      13.901  23.468   6.417  1.00 42.75    -0.015 A 
HETATM    9  C36 MK1 B 902      13.444  22.172   6.299  1.00 44.71     0.011 A 
HETATM   10  C35 MK1 B 902      13.894  21.419   5.217  1.00 49.34     0.018 A 
HETATM   11  C34 MK1 B 902      14.783  21.982   4.297  1.00 50.60     0.087 A 
HETATM   12  N5  MK1 B 902      15.292  23.279   4.344  1.00 51.38    -0.375 N 
HETATM   13  C33 MK1 B 902      14.792  23.971   5.459  1.00 47.41     0.096 A 
HETATM   14  H5  MK1 B 902      15.941  23.672   3.661  1.00  0.00     0.164 HD
ENDBRANCH   7   8
ENDBRANCH   1   7
BRANCH   3  15
HETATM   15  C3  MK1 B 902       9.560  25.801   4.906  1.00 28.85     0.242 C 
HETATM   16  O1  MK1 B 902       8.697  26.535   4.441  1.00 29.59    -0.271 OA
HETATM   17  N2  MK1 B 902       9.708  24.547   4.525  1.00 22.29    -0.351 N 
HETATM   18  H2  MK1 B 902      10.418  24.024   5.039  1.00  0.00     0.163 HD
BRANCH  17  19
HETATM   19  C4  MK1 B 902       9.034  23.803   3.509  1.00 23.47     0.022 C 
HETATM   20  C7  MK1 B 902       7.620  23.553   3.807  1.00 22.75     0.037 C 
HETATM   21  C5  MK1 B 902       9.676  22.404   3.477  1.00 27.66     0.037 C 
HETATM   22  C6  MK1 B 902       9.104  24.395   2.258  1.00 21.71     0.037 C 
ENDBRANCH  17  19
ENDBRANCH   3  15
BRANCH   4  23
HETATM   23  C10 MK1 B 902       8.902  27.782   7.256  1.00 20.86     0.149 C 
BRANCH  23  24
HETATM   24  C11 MK1 B 902       7.473  27.451   7.686  1.00 21.68     0.136 C 
BRANCH  24  25
HETATM   25  O2  MK1 B 902       7.468  28.314   8.784  1.00 15.87    -0.394 OA
HETATM   26  H2  MK1 B 902       6.622  28.243   9.210  1.00  0.00     0.210 HD
ENDBRANCH  24  25
BRANCH  24  27
HETATM   27  C12 MK1 B 902       6.223  27.754   6.839  1.00 21.49     0.047 C 
BRANCH  27  28
HETATM   28  C13 MK1 B 902       5.081  26.732   6.739  1.00 26.89     0.084 C 
BRANCH  28  29
HETATM   29  C21 MK1 B 902       5.000  26.097   5.356  1.00 29.35     0.222 C 
HETATM   30  N4  MK1 B 902       4.375  24.924   5.304  1.00 31.19    -0.350 N 
HETATM   31  H4  MK1 B 902       4.207  24.410   6.168  1.00  0.00     0.163 HD
HETATM   32  O3  MK1 B 902       5.395  26.713   4.355  1.00 32.66    -0.273 OA
BRANCH  30  33
HETATM   33  C22 MK1 B 902       3.928  24.355   4.043  1.00 29.22     0.147 C 
HETATM   34  C30 MK1 B 902       3.636  22.833   3.983  1.00 31.86    -0.027 A 
HETATM   35  C29 MK1 B 902       4.226  21.748   4.549  1.00 27.70     0.010 A 
HETATM   36  C25 MK1 B 902       2.406  22.535   3.079  1.00 31.29    -0.047 A 
HETATM   37  C28 MK1 B 902       3.750  20.462   4.331  1.00 29.01     0.001 A 
HETATM   38  C27 MK1 B 902       2.631  20.207   3.524  1.00 28.00     0.001 A 
HETATM   39  C26 MK1 B 902       1.950  21.251   2.890  1.00 32.00     0.008 A 
HETATM   40  C24 MK1 B 902       2.005  23.927   2.658  1.00 32.05     0.073 C 
HETATM   41  C23 MK1 B 902       2.612  24.958   3.582  1.00 28.82     0.149 C 
BRANCH  41  42
HETATM   42  O4  MK1 B 902       1.798  25.278   4.701  1.00 28.32    -0.393 OA
HETATM   43  H4  MK1 B 902       2.313  25.722   5.366  1.00  0.00     0.210 HD
ENDBRANCH  41  42
ENDBRANCH  30  33
ENDBRANCH  28  29
BRANCH  28  44
HETATM   44  C14 MK1 B 902       3.714  27.350   7.084  1.00 28.67     0.052 C 
BRANCH  44  45
HETATM   45  C15 MK1 B 902       3.648  28.798   6.761  1.00 26.89    -0.057 A 
HETATM   46  C16 MK1 B 902       3.747  29.792   7.736  1.00 29.22     0.007 A 
HETATM   47  C17 MK1 B 902       3.643  31.132   7.394  1.00 29.22     0.001 A 
HETATM   48  C18 MK1 B 902       3.435  31.469   6.054  1.00 30.97     0.000 A 
HETATM   49  C19 MK1 B 902       3.343  30.476   5.072  1.00 29.25     0.001 A 
HETATM   50  C20 MK1 B 902       3.450  29.133   5.432  1.00 29.96     0.007 A 
ENDBRANCH  44  45
ENDBRANCH  28  44
ENDBRANCH  27  28
ENDBRANCH  24  27
ENDBRANCH  23  24
ENDBRANCH   4  23
TORSDOF 14
ENDMDL
MODEL 18
REMARK VINA RESULT:      -8.7      2.581      6.504
REMARK  14 active torsions:
REMARK  status: ('A' for Active; 'I' for Inactive)
REMARK    1  A    between atoms: N1_1  and  C31_43 
REMARK    2  A    between atoms: C2_3  and  C3_4 
REMARK       I    between atoms: C3_4  and  N2_6 
REMARK    3  A    between atoms: N2_6  and  C4_8 
REMARK    4  A    between atoms: N3_12  and  C10_15 
REMARK    5  A    between atoms: C10_15  and  C11_16 
REMARK    6  A    between atoms: C11_16  and  O2_17 
REMARK    7  A    between atoms: C11_16  and  C12_19 
REMARK    8  A    between atoms: C12_19  and  C13_20 
REMARK    9  A    between atoms: C13_20  and  C21_28 
REMARK   10  A    between atoms: C13_20  and  C14_21 
REMARK   11  A    between atoms: C14_21  and  C15_22 
REMARK       I    between atoms: C21_28  and  N4_30 
REMARK   12  A    between atoms: N4_30  and  C22_32 
REMARK   13  A    between atoms: C23_33  and  O4_34 
REMARK   14  A    between atoms: C31_43  and  C32_44 
ROOT
HETATM    1  N1  MK1 B 902       4.257  25.297   3.769  1.00 28.25     0.096 N 
HETATM    2  C1  MK1 B 902       5.543  24.865   3.159  1.00 30.30     0.307 C 
HETATM    3  C2  MK1 B 902       6.817  24.786   3.976  1.00 27.27     0.200 C 
HETATM    4  N3  MK1 B 902       6.945  26.198   4.480  1.00 28.91    -0.395 N 
HETATM    5  C8  MK1 B 902       5.725  26.912   4.933  1.00 26.24     0.148 C 
HETATM    6  C9  MK1 B 902       4.427  26.608   4.213  1.00 27.47     0.292 C 
ENDROOT
BRANCH   1   7
HETATM    7  C31 MK1 B 902       3.033  25.065   2.993  1.00 36.25     0.312 C 
BRANCH   7   8
HETATM    8  C32 MK1 B 902       2.606  23.651   2.580  1.00 42.75    -0.015 A 
HETATM    9  C36 MK1 B 902       2.500  22.700   3.572  1.00 44.71     0.011 A 
HETATM   10  C35 MK1 B 902       2.131  21.409   3.200  1.00 49.34     0.018 A 
HETATM   11  C34 MK1 B 902       1.886  21.114   1.855  1.00 50.60     0.087 A 
HETATM   12  N5  MK1 B 902       1.970  22.014   0.794  1.00 51.38    -0.375 N 
HETATM   13  C33 MK1 B 902       2.345  23.289   1.251  1.00 47.41     0.096 A 
HETATM   14  H5  MK1 B 902       1.786  21.779  -0.181  1.00  0.00     0.164 HD
ENDBRANCH   7   8
ENDBRANCH   1   7
BRANCH   3  15
HETATM   15  C3  MK1 B 902       7.942  24.381   3.063  1.00 28.85     0.242 C 
HETATM   16  O1  MK1 B 902       8.171  25.019   2.044  1.00 29.59    -0.271 OA
HETATM   17  N2  MK1 B 902       8.639  23.317   3.409  1.00 22.29    -0.351 N 
HETATM   18  H2  MK1 B 902       8.303  22.837   4.245  1.00  0.00     0.163 HD
BRANCH  17  19
HETATM   19  C4  MK1 B 902       9.791  22.728   2.803  1.00 23.47     0.022 C 
HETATM   20  C7  MK1 B 902      10.720  22.131   3.767  1.00 22.75     0.037 C 
HETATM   21  C5  MK1 B 902      10.590  23.872   2.152  1.00 27.66     0.037 C 
HETATM   22  C6  MK1 B 902       9.480  21.760   1.861  1.00 21.71     0.037 C 
ENDBRANCH  17  19
ENDBRANCH   3  15
BRANCH   4  23
HETATM   23  C10 MK1 B 902       8.030  26.488   5.395  1.00 20.86     0.149 C 
BRANCH  23  24
HETATM   24  C11 MK1 B 902       9.421  26.193   4.830  1.00 21.68     0.136 C 
BRANCH  24  25
HETATM   25  O2  MK1 B 902       9.900  27.494   4.990  1.00 15.87    -0.394 OA
HETATM   26  H2  MK1 B 902      10.572  27.479   5.662  1.00  0.00     0.210 HD
ENDBRANCH  24  25
BRANCH  24  27
HETATM   27  C12 MK1 B 902      10.431  25.230   5.480  1.00 21.49     0.047 C 
BRANCH  27  28
HETATM   28  C13 MK1 B 902      11.686  25.770   6.181  1.00 26.89     0.084 C 
BRANCH  28  29
HETATM   29  C21 MK1 B 902      12.955  25.079   5.696  1.00 29.35     0.222 C 
HETATM   30  N4  MK1 B 902      13.487  24.204   6.545  1.00 31.19    -0.350 N 
HETATM   31  H4  MK1 B 902      13.189  24.211   7.520  1.00  0.00     0.163 HD
HETATM   32  O3  MK1 B 902      13.369  25.258   4.541  1.00 32.66    -0.273 OA
BRANCH  30  33
HETATM   33  C22 MK1 B 902      14.483  23.237   6.116  1.00 29.22     0.147 C 
HETATM   34  C30 MK1 B 902      15.573  22.800   7.131  1.00 31.86    -0.027 A 
HETATM   35  C29 MK1 B 902      16.267  23.461   8.095  1.00 27.70     0.010 A 
HETATM   36  C25 MK1 B 902      15.906  21.289   6.978  1.00 31.29    -0.047 A 
HETATM   37  C28 MK1 B 902      17.206  22.816   8.888  1.00 29.01     0.001 A 
HETATM   38  C27 MK1 B 902      17.488  21.449   8.751  1.00 28.00     0.001 A 
HETATM   39  C26 MK1 B 902      16.833  20.674   7.786  1.00 32.00     0.008 A 
HETATM   40  C24 MK1 B 902      14.960  20.889   5.873  1.00 32.05     0.073 C 
HETATM   41  C23 MK1 B 902      13.857  21.911   5.720  1.00 28.82     0.149 C 
BRANCH  41  42
HETATM   42  O4  MK1 B 902      12.714  21.648   6.521  1.00 28.32    -0.393 OA
HETATM   43  H4  MK1 B 902      12.290  20.847   6.237  1.00  0.00     0.210 HD
ENDBRANCH  41  42
ENDBRANCH  30  33
ENDBRANCH  28  29
BRANCH  28  44
HETATM   44  C14 MK1 B 902      11.602  25.638   7.711  1.00 28.67     0.052 C 
BRANCH  44  45
HETATM   45  C15 MK1 B 902      10.376  26.264   8.268  1.00 26.89    -0.057 A 
HETATM   46  C16 MK1 B 902       9.253  25.521   8.637  1.00 29.22     0.007 A 
HETATM   47  C17 MK1 B 902       8.115  26.152   9.119  1.00 29.22     0.001 A 
HETATM   48  C18 MK1 B 902       8.113  27.544   9.227  1.00 30.97     0.000 A 
HETATM   49  C19 MK1 B 902       9.240  28.293   8.865  1.00 29.25     0.001 A 
HETATM   50  C20 MK1 B 902      10.377  27.644   8.383  1.00 29.96     0.007 A 
ENDBRANCH  44  45
ENDBRANCH  28  44
ENDBRANCH  27  28
ENDBRANCH  24  27
ENDBRANCH  23  24
ENDBRANCH   4  23
TORSDOF 14
ENDMDL
MODEL 19
REMARK VINA RESULT:      -8.7      2.133     11.193
REMARK  14 active torsions:
REMARK  status: ('A' for Active; 'I' for Inactive)
REMARK    1  A    between atoms: N1_1  and  C31_43 
REMARK    2  A    between atoms: C2_3  and  C3_4 
REMARK       I    between atoms: C3_4  and  N2_6 
REMARK    3  A    between atoms: N2_6  and  C4_8 
REMARK    4  A    between atoms: N3_12  and  C10_15 
REMARK    5  A    between atoms: C10_15  and  C11_16 
REMARK    6  A    between atoms: C11_16  and  O2_17 
REMARK    7  A    between atoms: C11_16  and  C12_19 
REMARK    8  A    between atoms: C12_19  and  C13_20 
REMARK    9  A    between atoms: C13_20  and  C21_28 
REMARK   10  A    between atoms: C13_20  and  C14_21 
REMARK   11  A    between atoms: C14_21  and  C15_22 
REMARK       I    between atoms: C21_28  and  N4_30 
REMARK   12  A    between atoms: N4_30  and  C22_32 
REMARK   13  A    between atoms: C23_33  and  O4_34 
REMARK   14  A    between atoms: C31_43  and  C32_44 
ROOT
HETATM    1  N1  MK1 B 902      16.536  21.962   8.079  1.00 28.25     0.096 N 
HETATM    2  C1  MK1 B 902      16.235  20.885   7.097  1.00 30.30     0.307 C 
HETATM    3  C2  MK1 B 902      15.613  21.198   5.751  1.00 27.27     0.200 C 
HETATM    4  N3  MK1 B 902      14.336  21.883   6.157  1.00 28.91    -0.395 N 
HETATM    5  C8  MK1 B 902      14.365  22.844   7.287  1.00 26.24     0.148 C 
HETATM    6  C9  MK1 B 902      15.324  22.559   8.425  1.00 27.47     0.292 C 
ENDROOT
BRANCH   1   7
HETATM    7  C31 MK1 B 902      17.396  21.613   9.216  1.00 36.25     0.312 C 
BRANCH   7   8
HETATM    8  C32 MK1 B 902      17.416  20.194   9.797  1.00 42.75    -0.015 A 
HETATM    9  C36 MK1 B 902      18.645  19.600   9.992  1.00 44.71     0.011 A 
HETATM   10  C35 MK1 B 902      18.669  18.304  10.500  1.00 49.34     0.018 A 
HETATM   11  C34 MK1 B 902      17.470  17.647  10.791  1.00 50.60     0.087 A 
HETATM   12  N5  MK1 B 902      16.190  18.173  10.623  1.00 51.38    -0.375 N 
HETATM   13  C33 MK1 B 902      16.251  19.478  10.110  1.00 47.41     0.096 A 
HETATM   14  H5  MK1 B 902      15.326  17.676  10.843  1.00  0.00     0.164 HD
ENDBRANCH   7   8
ENDBRANCH   1   7
BRANCH   3  15
HETATM   15  C3  MK1 B 902      15.381  19.901   5.023  1.00 28.85     0.242 C 
HETATM   16  O1  MK1 B 902      14.447  19.175   5.336  1.00 29.59    -0.271 OA
HETATM   17  N2  MK1 B 902      16.230  19.594   4.062  1.00 22.29    -0.351 N 
HETATM   18  H2  MK1 B 902      17.003  20.251   3.947  1.00  0.00     0.163 HD
BRANCH  17  19
HETATM   19  C4  MK1 B 902      16.243  18.490   3.157  1.00 23.47     0.022 C 
HETATM   20  C7  MK1 B 902      14.989  18.328   2.414  1.00 22.75     0.037 C 
HETATM   21  C5  MK1 B 902      16.356  17.212   4.008  1.00 27.66     0.037 C 
HETATM   22  C6  MK1 B 902      17.275  18.548   2.235  1.00 21.71     0.037 C 
ENDBRANCH  17  19
ENDBRANCH   3  15
BRANCH   4  23
HETATM   23  C10 MK1 B 902      13.498  22.417   5.102  1.00 20.86     0.149 C 
BRANCH  23  24
HETATM   24  C11 MK1 B 902      12.039  21.961   5.170  1.00 21.68     0.136 C 
BRANCH  24  25
HETATM   25  O2  MK1 B 902      12.125  21.458   6.469  1.00 15.87    -0.394 OA
HETATM   26  H2  MK1 B 902      12.077  22.191   7.072  1.00  0.00     0.210 HD
ENDBRANCH  24  25
BRANCH  24  27
HETATM   27  C12 MK1 B 902      10.832  22.914   5.107  1.00 21.49     0.047 C 
BRANCH  27  28
HETATM   28  C13 MK1 B 902      10.731  23.977   4.003  1.00 26.89     0.084 C 
BRANCH  28  29
HETATM   29  C21 MK1 B 902       9.982  25.219   4.470  1.00 29.35     0.222 C 
HETATM   30  N4  MK1 B 902       9.506  25.164   5.711  1.00 31.19    -0.350 N 
HETATM   31  H4  MK1 B 902       9.446  24.262   6.182  1.00  0.00     0.163 HD
HETATM   32  O3  MK1 B 902       9.939  26.234   3.759  1.00 32.66    -0.273 OA
BRANCH  30  33
HETATM   33  C22 MK1 B 902       9.068  26.360   6.411  1.00 29.22     0.147 C 
HETATM   34  C30 MK1 B 902       7.610  26.846   6.200  1.00 31.86    -0.027 A 
HETATM   35  C29 MK1 B 902       6.784  26.874   5.121  1.00 27.70     0.010 A 
HETATM   36  C25 MK1 B 902       7.010  27.408   7.520  1.00 31.29    -0.047 A 
HETATM   37  C28 MK1 B 902       5.490  27.370   5.206  1.00 29.01     0.001 A 
HETATM   38  C27 MK1 B 902       4.955  27.861   6.406  1.00 28.00     0.001 A 
HETATM   39  C26 MK1 B 902       5.721  27.883   7.577  1.00 32.00     0.008 A 
HETATM   40  C24 MK1 B 902       8.159  27.200   8.477  1.00 32.05     0.073 C 
HETATM   41  C23 MK1 B 902       9.141  26.195   7.920  1.00 28.82     0.149 C 
BRANCH  41  42
HETATM   42  O4  MK1 B 902       8.857  24.852   8.282  1.00 28.32    -0.393 OA
HETATM   43  H4  MK1 B 902       9.558  24.501   8.820  1.00  0.00     0.210 HD
ENDBRANCH  41  42
ENDBRANCH  30  33
ENDBRANCH  28  29
BRANCH  28  44
HETATM   44  C14 MK1 B 902      10.053  23.435   2.733  1.00 28.67     0.052 C 
BRANCH  44  45
HETATM   45  C15 MK1 B 902       8.585  23.653   2.735  1.00 26.89    -0.057 A 
HETATM   46  C16 MK1 B 902       7.966  24.615   1.935  1.00 29.22     0.007 A 
HETATM   47  C17 MK1 B 902       6.594  24.810   1.997  1.00 29.22     0.001 A 
HETATM   48  C18 MK1 B 902       5.843  24.027   2.876  1.00 30.97     0.000 A 
HETATM   49  C19 MK1 B 902       6.458  23.056   3.675  1.00 29.25     0.001 A 
HETATM   50  C20 MK1 B 902       7.839  22.871   3.601  1.00 29.96     0.007 A 
ENDBRANCH  44  45
ENDBRANCH  28  44
ENDBRANCH  27  28
ENDBRANCH  24  27
ENDBRANCH  23  24
ENDBRANCH   4  23
TORSDOF 14
ENDMDL
MODEL 20
REMARK VINA RESULT:      -8.6      1.606      2.021
REMARK  14 active torsions:
REMARK  status: ('A' for Active; 'I' for Inactive)
REMARK    1  A    between atoms: N1_1  and  C31_43 
REMARK    2  A    between atoms: C2_3  and  C3_4 
REMARK       I    between atoms: C3_4  and  N2_6 
REMARK    3  A    between atoms: N2_6  and  C4_8 
REMARK    4  A    between atoms: N3_12  and  C10_15 
REMARK    5  A    between atoms: C10_15  and  C11_16 
REMARK    6  A    between atoms: C11_16  and  O2_17 
REMARK    7  A    between atoms: C11_16  and  C12_19 
REMARK    8  A    between atoms: C12_19  and  C13_20 
REMARK    9  A    between atoms: C13_20  and  C21_28 
REMARK   10  A    between atoms: C13_20  and  C14_21 
REMARK   11  A    between atoms: C14_21  and  C15_22 
REMARK       I    between atoms: C21_28  and  N4_30 
REMARK   12  A    between atoms: N4_30  and  C22_32 
REMARK   13  A    between atoms: C23_33  and  O4_34 
REMARK   14  A    between atoms: C31_43  and  C32_44 
ROOT
HETATM    1  N1  MK1 B 902       7.312  24.594   3.460  1.00 28.25     0.096 N 
HETATM    2  C1  MK1 B 902       8.195  25.122   4.534  1.00 30.30     0.307 C 
HETATM    3  C2  MK1 B 902       9.697  24.916   4.493  1.00 27.27     0.200 C 
HETATM    4  N3  MK1 B 902       9.797  23.415   4.447  1.00 28.91    -0.395 N 
HETATM    5  C8  MK1 B 902       8.844  22.657   3.598  1.00 26.24     0.148 C 
HETATM    6  C9  MK1 B 902       7.438  23.206   3.463  1.00 27.47     0.292 C 
ENDROOT
BRANCH   1   7
HETATM    7  C31 MK1 B 902       5.930  25.086   3.424  1.00 36.25     0.312 C 
BRANCH   7   8
HETATM    8  C32 MK1 B 902       4.901  24.506   2.447  1.00 42.75    -0.015 A 
HETATM    9  C36 MK1 B 902       5.010  24.860   1.119  1.00 44.71     0.011 A 
HETATM   10  C35 MK1 B 902       4.066  24.353   0.229  1.00 49.34     0.018 A 
HETATM   11  C34 MK1 B 902       3.049  23.516   0.695  1.00 50.60     0.087 A 
HETATM   12  N5  MK1 B 902       2.867  23.110   2.016  1.00 51.38    -0.375 N 
HETATM   13  C33 MK1 B 902       3.855  23.662   2.848  1.00 47.41     0.096 A 
HETATM   14  H5  MK1 B 902       2.117  22.497   2.336  1.00  0.00     0.164 HD
ENDBRANCH   7   8
ENDBRANCH   1   7
BRANCH   3  15
HETATM   15  C3  MK1 B 902      10.291  25.508   5.742  1.00 28.85     0.242 C 
HETATM   16  O1  MK1 B 902      11.296  26.206   5.678  1.00 29.59    -0.271 OA
HETATM   17  N2  MK1 B 902       9.690  25.228   6.881  1.00 22.29    -0.351 N 
HETATM   18  H2  MK1 B 902       8.904  24.582   6.804  1.00  0.00     0.163 HD
BRANCH  17  19
HETATM   19  C4  MK1 B 902       9.963  25.685   8.207  1.00 23.47     0.022 C 
HETATM   20  C7  MK1 B 902       9.115  25.059   9.227  1.00 22.75     0.037 C 
HETATM   21  C5  MK1 B 902       9.587  27.177   8.254  1.00 27.66     0.037 C 
HETATM   22  C6  MK1 B 902      11.283  25.507   8.588  1.00 21.71     0.037 C 
ENDBRANCH  17  19
ENDBRANCH   3  15
BRANCH   4  23
HETATM   23  C10 MK1 B 902      11.119  22.836   4.307  1.00 20.86     0.149 C 
BRANCH  23  24
HETATM   24  C11 MK1 B 902      12.134  23.341   5.334  1.00 21.68     0.136 C 
BRANCH  24  25
HETATM   25  O2  MK1 B 902      11.992  22.253   6.198  1.00 15.87    -0.394 OA
HETATM   26  H2  MK1 B 902      12.091  21.458   5.688  1.00  0.00     0.210 HD
ENDBRANCH  24  25
BRANCH  24  27
HETATM   27  C12 MK1 B 902      13.636  23.525   5.045  1.00 21.49     0.047 C 
BRANCH  27  28
HETATM   28  C13 MK1 B 902      14.690  22.832   5.920  1.00 26.89     0.084 C 
BRANCH  28  29
HETATM   29  C21 MK1 B 902      14.861  21.362   5.556  1.00 29.35     0.222 C 
HETATM   30  N4  MK1 B 902      16.114  20.967   5.352  1.00 31.19    -0.350 N 
HETATM   31  H4  MK1 B 902      16.841  21.669   5.210  1.00  0.00     0.163 HD
HETATM   32  O3  MK1 B 902      13.889  20.591   5.572  1.00 32.66    -0.273 OA
BRANCH  30  33
HETATM   33  C22 MK1 B 902      16.474  19.560   5.325  1.00 29.22     0.147 C 
HETATM   34  C30 MK1 B 902      16.553  18.844   3.951  1.00 31.86    -0.027 A 
HETATM   35  C29 MK1 B 902      15.820  18.934   2.810  1.00 27.70     0.010 A 
HETATM   36  C25 MK1 B 902      17.726  17.824   3.918  1.00 31.29    -0.047 A 
HETATM   37  C28 MK1 B 902      16.113  18.164   1.693  1.00 29.01     0.001 A 
HETATM   38  C27 MK1 B 902      17.183  17.257   1.670  1.00 28.00     0.001 A 
HETATM   39  C26 MK1 B 902      17.999  17.082   2.793  1.00 32.00     0.008 A 
HETATM   40  C24 MK1 B 902      18.314  18.006   5.296  1.00 32.05     0.073 C 
HETATM   41  C23 MK1 B 902      17.859  19.315   5.900  1.00 28.82     0.149 C 
BRANCH  41  42
HETATM   42  O4  MK1 B 902      18.713  20.411   5.608  1.00 28.32    -0.393 OA
HETATM   43  H4  MK1 B 902      18.466  21.168   6.127  1.00  0.00     0.210 HD
ENDBRANCH  41  42
ENDBRANCH  30  33
ENDBRANCH  28  29
BRANCH  28  44
HETATM   44  C14 MK1 B 902      14.365  22.940   7.420  1.00 28.67     0.052 C 
BRANCH  44  45
HETATM   45  C15 MK1 B 902      15.397  22.297   8.272  1.00 26.89    -0.057 A 
HETATM   46  C16 MK1 B 902      16.757  22.590   8.157  1.00 29.22     0.007 A 
HETATM   47  C17 MK1 B 902      17.690  21.938   8.949  1.00 29.22     0.001 A 
HETATM   48  C18 MK1 B 902      17.245  20.981   9.863  1.00 30.97     0.000 A 
HETATM   49  C19 MK1 B 902      15.881  20.689   9.988  1.00 29.25     0.001 A 
HETATM   50  C20 MK1 B 902      14.955  21.354   9.184  1.00 29.96     0.007 A 
ENDBRANCH  44  45
ENDBRANCH  28  44
ENDBRANCH  27  28
ENDBRANCH  24  27
ENDBRANCH  23  24
ENDBRANCH   4  23
TORSDOF 14
ENDMDL
